# generated using pymatgen
data_HCl
_symmetry_space_group_name_H-M   'P 1'
_cell_length_a   3.85562686
_cell_length_b   3.85562686
_cell_length_c   5.37300000
_cell_angle_alpha   90.00000000
_cell_angle_beta   90.00000000
_cell_angle_gamma   98.11882797
_symmetry_Int_Tables_number   1
_chemical_formula_structural   HCl
_chemical_formula_sum   'H2 Cl2'
_cell_volume   79.07370213
_cell_formula_units_Z   2
loop_
 _symmetry_equiv_pos_site_id
 _symmetry_equiv_pos_as_xyz
  1  'x, y, z'
loop_
 _atom_site_type_symbol
 _atom_site_label
 _atom_site_symmetry_multiplicity
 _atom_site_fract_x
 _atom_site_fract_y
 _atom_site_fract_z
 _atom_site_occupancy
  H  H2  1  0.08100000  0.08100000  0.67000000  1.0
  H  H3  1  0.91900000  0.91900000  0.17000000  1.0
  Cl  Cl0  1  0.25000000  0.25000000  0.50000000  1.0
  Cl  Cl1  1  0.75000000  0.75000000  0.00000000  1.0
