# generated using pymatgen
data_SbF3
_symmetry_space_group_name_H-M   'P 1'
_cell_length_a   4.48894754
_cell_length_b   4.48894754
_cell_length_c   7.25000000
_cell_angle_alpha   90.00000000
_cell_angle_beta   90.00000000
_cell_angle_gamma   113.08006946
_symmetry_Int_Tables_number   1
_chemical_formula_structural   SbF3
_chemical_formula_sum   'Sb2 F6'
_cell_volume   134.39868769
_cell_formula_units_Z   2
loop_
 _symmetry_equiv_pos_site_id
 _symmetry_equiv_pos_as_xyz
  1  'x, y, z'
loop_
 _atom_site_type_symbol
 _atom_site_label
 _atom_site_symmetry_multiplicity
 _atom_site_fract_x
 _atom_site_fract_y
 _atom_site_fract_z
 _atom_site_occupancy
  Sb  Sb6  1  0.21400000  0.78600000  0.25000000  1.0
  Sb  Sb7  1  0.78600000  0.21400000  0.75000000  1.0
  F  F0  1  0.30600000  0.37200000  0.25000000  1.0
  F  F1  1  0.37200000  0.30600000  0.75000000  1.0
  F  F2  1  0.00000000  0.57200000  0.93100000  1.0
  F  F3  1  0.57200000  0.00000000  0.06900000  1.0
  F  F4  1  0.00000000  0.57200000  0.56900000  1.0
  F  F5  1  0.57200000  0.00000000  0.43100000  1.0
