# generated using pymatgen
data_Y(BO2)3
_symmetry_space_group_name_H-M   'P 1'
_cell_length_a   4.22545544
_cell_length_b   4.37833414
_cell_length_c   18.19392786
_cell_angle_alpha   90.00000000
_cell_angle_beta   90.00000000
_cell_angle_gamma   90.00000000
_symmetry_Int_Tables_number   1
_chemical_formula_structural   Y(BO2)3
_chemical_formula_sum   'Y4 B12 O24'
_cell_volume   336.59595838
_cell_formula_units_Z   4
loop_
 _symmetry_equiv_pos_site_id
 _symmetry_equiv_pos_as_xyz
  1  'x, y, z'
loop_
 _atom_site_type_symbol
 _atom_site_label
 _atom_site_symmetry_multiplicity
 _atom_site_fract_x
 _atom_site_fract_y
 _atom_site_fract_z
 _atom_site_occupancy
  Y  Y0  1  0.39591603  0.19192371  0.83499116  1
  Y  Y1  1  0.89591603  0.19192371  0.66500884  1
  Y  Y2  1  0.39591603  0.80807629  0.33499116  1
  Y  Y3  1  0.89591603  0.80807629  0.16500884  1
  B  B4  1  0.30403194  0.82459414  0.99861798  1
  B  B5  1  0.82955022  0.67219257  0.92590580  1
  B  B6  1  0.87535218  0.65211670  0.78730063  1
  B  B7  1  0.37535218  0.65211670  0.71269937  1
  B  B8  1  0.32955022  0.67219257  0.57409420  1
  B  B9  1  0.80403194  0.82459414  0.50138202  1
  B  B10  1  0.30403194  0.17540586  0.49861798  1
  B  B11  1  0.82955022  0.32780743  0.42590580  1
  B  B12  1  0.87535218  0.34788330  0.28730063  1
  B  B13  1  0.37535218  0.34788330  0.21269937  1
  B  B14  1  0.32955022  0.32780743  0.07409420  1
  B  B15  1  0.80403194  0.17540586  0.00138202  1
  O  O16  1  0.66258796  0.86378557  0.98496039  1
  O  O17  1  0.74118918  0.35428583  0.93653516  1
  O  O18  1  0.16796528  0.72812646  0.93058910  1
  O  O19  1  0.72129010  0.77214562  0.85389248  1
  O  O20  1  0.88206225  0.32074207  0.79039379  1
  O  O21  1  0.19861387  0.76463483  0.77800175  1
  O  O22  1  0.69861387  0.76463483  0.72199825  1
  O  O23  1  0.38206225  0.32074207  0.70960621  1
  O  O24  1  0.22129010  0.77214562  0.64610752  1
  O  O25  1  0.66796528  0.72812646  0.56941090  1
  O  O26  1  0.24118918  0.35428583  0.56346484  1
  O  O27  1  0.16258796  0.86378557  0.51503961  1
  O  O28  1  0.66258796  0.13621443  0.48496039  1
  O  O29  1  0.74118918  0.64571417  0.43653516  1
  O  O30  1  0.16796528  0.27187354  0.43058910  1
  O  O31  1  0.72129010  0.22785438  0.35389248  1
  O  O32  1  0.88206225  0.67925793  0.29039379  1
  O  O33  1  0.19861387  0.23536517  0.27800175  1
  O  O34  1  0.69861387  0.23536517  0.22199825  1
  O  O35  1  0.38206225  0.67925793  0.20960621  1
  O  O36  1  0.22129010  0.22785438  0.14610752  1
  O  O37  1  0.66796528  0.27187354  0.06941090  1
  O  O38  1  0.24118918  0.64571417  0.06346484  1
  O  O39  1  0.16258796  0.13621443  0.01503961  1
