# generated using pymatgen
data_CaZr2PbO6
_symmetry_space_group_name_H-M   'P 1'
_cell_length_a   8.16755095
_cell_length_b   8.16929240
_cell_length_c   8.16939942
_cell_angle_alpha   89.32274601
_cell_angle_beta   89.32168980
_cell_angle_gamma   89.30424520
_symmetry_Int_Tables_number   1
_chemical_formula_structural   CaZr2PbO6
_chemical_formula_sum   'Ca4 Zr8 Pb4 O24'
_cell_volume   544.97220470
_cell_formula_units_Z   4
loop_
 _symmetry_equiv_pos_site_id
 _symmetry_equiv_pos_as_xyz
  1  'x, y, z'
loop_
 _atom_site_type_symbol
 _atom_site_label
 _atom_site_symmetry_multiplicity
 _atom_site_fract_x
 _atom_site_fract_y
 _atom_site_fract_z
 _atom_site_occupancy
  Ca  Ca0  1  0.52352434  0.51834426  0.02020695  1
  Ca  Ca1  1  0.52027087  0.02544653  0.02184631  1
  Ca  Ca2  1  0.02441685  0.01812192  0.52110110  1
  Ca  Ca3  1  0.01983355  0.52469104  0.02218874  1
  Zr  Zr4  1  0.74510062  0.74725536  0.75077455  1
  Zr  Zr5  1  0.24705585  0.25073424  0.24440244  1
  Zr  Zr6  1  0.75108288  0.24909253  0.24566004  1
  Zr  Zr7  1  0.24395031  0.24625307  0.74989515  1
  Zr  Zr8  1  0.25113839  0.74931970  0.24464864  1
  Zr  Zr9  1  0.74526227  0.24241964  0.74967573  1
  Zr  Zr10  1  0.24618818  0.74376382  0.74773198  1
  Zr  Zr11  1  0.74735120  0.74865166  0.24336119  1
  Pb  Pb12  1  0.51483451  0.51060518  0.51259015  1
  Pb  Pb13  1  0.01538589  0.00831021  0.01182691  1
  Pb  Pb14  1  0.50917959  0.01617117  0.50933920  1
  Pb  Pb15  1  0.00758316  0.51451709  0.51373180  1
  O  O16  1  0.27814384  0.18404032  0.99160444  1
  O  O17  1  0.18781459  0.99274438  0.27582579  1
  O  O18  1  0.99311763  0.28384114  0.18330363  1
  O  O19  1  0.69901223  0.76246819  0.49106889  1
  O  O20  1  0.76395048  0.48808350  0.70141216  1
  O  O21  1  0.48896249  0.68538085  0.77914121  1
  O  O22  1  0.77797413  0.68351207  0.99055218  1
  O  O23  1  0.68421242  0.98821695  0.78431468  1
  O  O24  1  0.98787141  0.77685047  0.68873602  1
  O  O25  1  0.19940194  0.26194683  0.49105602  1
  O  O26  1  0.27787518  0.49353097  0.18540760  1
  O  O27  1  0.49259078  0.20058731  0.26355119  1
  O  O28  1  0.69394711  0.49336460  0.26237262  1
  O  O29  1  0.48943398  0.26279175  0.69676534  1
  O  O30  1  0.26688630  0.69655188  0.49083082  1
  O  O31  1  0.98997494  0.19265761  0.76266608  1
  O  O32  1  0.19405714  0.76451344  0.99117519  1
  O  O33  1  0.76327189  0.99429868  0.19376134  1
  O  O34  1  0.18167254  0.48914117  0.77944329  1
  O  O35  1  0.49295187  0.77800632  0.17989160  1
  O  O36  1  0.77735347  0.18570939  0.49027401  1
  O  O37  1  0.99310978  0.69953301  0.26057915  1
  O  O38  1  0.68756263  0.27393835  0.99128560  1
  O  O39  1  0.26068980  0.98859240  0.69999924  1
