# generated using pymatgen
data_SiH8
_symmetry_space_group_name_H-M   'P 1'
_cell_length_a   4.70491341
_cell_length_b   4.70851051
_cell_length_c   6.45339650
_cell_angle_alpha   90.00000000
_cell_angle_beta   90.00000000
_cell_angle_gamma   90.00000000
_symmetry_Int_Tables_number   1
_chemical_formula_structural   SiH8
_chemical_formula_sum   'Si2 H16'
_cell_volume   142.96295897
_cell_formula_units_Z   2
loop_
 _symmetry_equiv_pos_site_id
 _symmetry_equiv_pos_as_xyz
  1  'x, y, z'
loop_
 _atom_site_type_symbol
 _atom_site_label
 _atom_site_symmetry_multiplicity
 _atom_site_fract_x
 _atom_site_fract_y
 _atom_site_fract_z
 _atom_site_occupancy
  Si  Si0  1  0.00000000  0.75252381  0.35806120  1
  Si  Si1  1  0.50000000  0.24747619  0.85806120  1
  H  H2  1  0.00000000  0.49366019  0.49275467  1
  H  H3  1  0.50000000  0.50633981  0.99275467  1
  H  H4  1  0.00000000  0.01355785  0.49067234  1
  H  H5  1  0.50000000  0.98644215  0.99067234  1
  H  H6  1  0.25989026  0.75279144  0.22403806  1
  H  H7  1  0.24010974  0.24720856  0.72403806  1
  H  H8  1  0.75989026  0.24720856  0.72403806  1
  H  H9  1  0.74010974  0.75279144  0.22403806  1
  H  H10  1  0.00000000  0.70891373  0.80226996  1
  H  H11  1  0.50000000  0.29108627  0.30226996  1
  H  H12  1  0.00000000  0.77174115  0.91140552  1
  H  H13  1  0.50000000  0.22825885  0.41140552  1
  H  H14  1  0.00000000  0.23866658  0.16418648  1
  H  H15  1  0.50000000  0.76133342  0.66418648  1
  H  H16  1  0.00000000  0.29005072  0.05117370  1
  H  H17  1  0.50000000  0.70994928  0.55117370  1
