# generated using pymatgen
data_NaBSe2
_symmetry_space_group_name_H-M   'P 1'
_cell_length_a   5.94760453
_cell_length_b   5.94760453
_cell_length_c   5.94760453
_cell_angle_alpha   95.57795959
_cell_angle_beta   116.83354040
_cell_angle_gamma   116.83354040
_symmetry_Int_Tables_number   1
_chemical_formula_structural   NaBSe2
_chemical_formula_sum   'Na2 B2 Se4'
_cell_volume   155.09322824
_cell_formula_units_Z   2
loop_
 _symmetry_equiv_pos_site_id
 _symmetry_equiv_pos_as_xyz
  1  'x, y, z'
loop_
 _atom_site_type_symbol
 _atom_site_label
 _atom_site_symmetry_multiplicity
 _atom_site_fract_x
 _atom_site_fract_y
 _atom_site_fract_z
 _atom_site_occupancy
  B  B0  1  -0.00000000  0.50000000  0.50000000  1
  B  B1  1  0.50000000  0.25000000  0.75000000  1
  Na  Na2  1  0.00000000  0.00000000  0.00000000  1
  Na  Na3  1  0.50000000  0.75000000  0.25000000  1
  Se  Se4  1  0.09784375  0.22284375  0.62500000  1
  Se  Se5  1  0.90215625  0.52715625  0.12500000  1
  Se  Se6  1  0.40215625  0.87500000  0.77715625  1
  Se  Se7  1  0.59784375  0.37500000  0.47284375  1
