# generated using pymatgen
data_LiAlP2O7
_symmetry_space_group_name_H-M   'P 1'
_cell_length_a   4.41318203
_cell_length_b   5.05655057
_cell_length_c   5.05655057
_cell_angle_alpha   101.34834667
_cell_angle_beta   98.68588027
_cell_angle_gamma   98.68588027
_symmetry_Int_Tables_number   1
_chemical_formula_structural   LiAlP2O7
_chemical_formula_sum   'Li1 Al1 P2 O7'
_cell_volume   107.44607485
_cell_formula_units_Z   1
loop_
 _symmetry_equiv_pos_site_id
 _symmetry_equiv_pos_as_xyz
  1  'x, y, z'
loop_
 _atom_site_type_symbol
 _atom_site_label
 _atom_site_symmetry_multiplicity
 _atom_site_fract_x
 _atom_site_fract_y
 _atom_site_fract_z
 _atom_site_occupancy
  Al  Al0  1  0.50000000  0.37758867  0.62241133  1
  Li  Li1  1  0.50000000  0.75210367  0.24789633  1
  O  O2  1  0.68577015  0.15807618  0.35529688  1
  O  O3  1  0.78131697  0.67844842  0.56954137  1
  O  O4  1  0.24266361  0.05594705  0.63535743  1
  O  O5  1  -0.00000000  0.95753144  0.04246856  1
  O  O6  1  0.21868303  0.43045863  0.32155158  1
  O  O7  1  0.75733639  0.36464257  0.94405295  1
  O  O8  1  0.31422985  0.64470312  0.84192382  1
  P  P9  1  0.90905128  0.24576475  0.17043550  1
  P  P10  1  0.09094872  0.82956450  0.75423525  1
