# generated using pymatgen
data_Li2SiPbSe4
_symmetry_space_group_name_H-M   'P 1'
_cell_length_a   6.20826192
_cell_length_b   6.20867843
_cell_length_c   6.20867843
_cell_angle_alpha   101.52761104
_cell_angle_beta   113.57813532
_cell_angle_gamma   113.57813532
_symmetry_Int_Tables_number   1
_chemical_formula_structural   Li2SiPbSe4
_chemical_formula_sum   'Li2 Si1 Pb1 Se4'
_cell_volume   181.64501471
_cell_formula_units_Z   1
loop_
 _symmetry_equiv_pos_site_id
 _symmetry_equiv_pos_as_xyz
  1  'x, y, z'
loop_
 _atom_site_type_symbol
 _atom_site_label
 _atom_site_symmetry_multiplicity
 _atom_site_fract_x
 _atom_site_fract_y
 _atom_site_fract_z
 _atom_site_occupancy
  Li  Li0  1  0.49976281  0.74994924  0.24990963  1
  Li  Li1  1  0.49976281  0.24990963  0.74994924  1
  Pb  Pb2  1  0.00030285  0.00025308  0.00025308  1
  Se  Se3  1  0.60992102  0.47061564  0.47061564  1
  Se  Se4  1  0.99979501  0.13920022  0.52941757  1
  Se  Se5  1  0.99979501  0.52941757  0.13920022  1
  Se  Se6  1  0.39037921  0.86050377  0.86050377  1
  Si  Si7  1  0.00004828  0.49999285  0.49999285  1
