# generated using pymatgen
data_BPPbO5
_symmetry_space_group_name_H-M   'P 1'
_cell_length_a   6.85100000
_cell_length_b   6.85100000
_cell_length_c   6.82100000
_cell_angle_alpha   90.00000000
_cell_angle_beta   90.00000000
_cell_angle_gamma   120.00000000
_symmetry_Int_Tables_number   1
_chemical_formula_structural   BPPbO5
_chemical_formula_sum   'B3 P3 Pb3 O15'
_cell_volume   277.25961527
_cell_formula_units_Z   3
loop_
 _symmetry_equiv_pos_site_id
 _symmetry_equiv_pos_as_xyz
  1  'x, y, z'
loop_
 _atom_site_type_symbol
 _atom_site_label
 _atom_site_symmetry_multiplicity
 _atom_site_fract_x
 _atom_site_fract_y
 _atom_site_fract_z
 _atom_site_occupancy
  B  B0  1  0.09210000  0.09210000  0.00000000  1.0
  B  B1  1  0.00000000  0.90790000  0.66666667  1.0
  B  B2  1  0.90790000  0.00000000  0.33333333  1.0
  P  P3  1  0.60870000  0.60870000  0.50000000  1.0
  P  P4  1  0.00000000  0.39130000  0.16666667  1.0
  P  P5  1  0.39130000  0.00000000  0.83333333  1.0
  Pb  Pb6  1  0.60830000  0.60830000  0.00000000  1.0
  Pb  Pb7  1  0.00000000  0.39170000  0.66666667  1.0
  Pb  Pb8  1  0.39170000  0.00000000  0.33333333  1.0
  O  O9  1  0.85940000  0.41920000  0.02910000  1.0
  O  O10  1  0.58080000  0.44020000  0.36243333  1.0
  O  O11  1  0.55980000  0.14060000  0.69576667  1.0
  O  O12  1  0.94880000  0.00000000  0.83333333  1.0
  O  O13  1  0.00000000  0.94880000  0.16666667  1.0
  O  O14  1  0.05120000  0.05120000  0.50000000  1.0
  O  O15  1  0.33260000  0.14150000  0.96730000  1.0
  O  O16  1  0.85850000  0.19110000  0.30063333  1.0
  O  O17  1  0.80890000  0.66740000  0.63396667  1.0
  O  O18  1  0.19110000  0.85850000  0.69936667  1.0
  O  O19  1  0.66740000  0.80890000  0.36603333  1.0
  O  O20  1  0.14150000  0.33260000  0.03270000  1.0
  O  O21  1  0.41920000  0.85940000  0.97090000  1.0
  O  O22  1  0.14060000  0.55980000  0.30423333  1.0
  O  O23  1  0.44020000  0.58080000  0.63756667  1.0
