# generated using pymatgen
data_NaTi2BiO6
_symmetry_space_group_name_H-M   'P 1'
_cell_length_a   4.18833286
_cell_length_b   5.39927722
_cell_length_c   5.39927722
_cell_angle_alpha   90.00099370
_cell_angle_beta   90.00000000
_cell_angle_gamma   90.00000000
_symmetry_Int_Tables_number   1
_chemical_formula_structural   NaTi2BiO6
_chemical_formula_sum   'Na1 Ti2 Bi1 O6'
_cell_volume   122.09909417
_cell_formula_units_Z   1
loop_
 _symmetry_equiv_pos_site_id
 _symmetry_equiv_pos_as_xyz
  1  'x, y, z'
loop_
 _atom_site_type_symbol
 _atom_site_label
 _atom_site_symmetry_multiplicity
 _atom_site_fract_x
 _atom_site_fract_y
 _atom_site_fract_z
 _atom_site_occupancy
  Bi  Bi0  1  0.39539906  0.50000000  0.50000000  1
  Na  Na1  1  0.42750595  0.00000000  0.00000000  1
  O  O2  1  0.55685309  0.50000000  -0.00000000  1
  O  O3  1  0.55685309  -0.00000000  0.50000000  1
  O  O4  1  0.07256389  0.74250786  0.25749214  1
  O  O5  1  0.07256389  0.25749214  0.74250786  1
  O  O6  1  0.07252564  0.74225299  0.74225299  1
  O  O7  1  0.07252564  0.25774701  0.25774701  1
  Ti  Ti8  1  0.97660487  0.50000000  -0.00000000  1
  Ti  Ti9  1  0.97660487  -0.00000000  0.50000000  1
