# generated using pymatgen
data_YHCO4
_symmetry_space_group_name_H-M   'P 1'
_cell_length_a   4.78377675
_cell_length_b   6.93781963
_cell_length_c   8.43562479
_cell_angle_alpha   90.00000000
_cell_angle_beta   90.00000000
_cell_angle_gamma   90.00000000
_symmetry_Int_Tables_number   1
_chemical_formula_structural   YHCO4
_chemical_formula_sum   'Y4 H4 C4 O16'
_cell_volume   279.96978448
_cell_formula_units_Z   4
loop_
 _symmetry_equiv_pos_site_id
 _symmetry_equiv_pos_as_xyz
  1  'x, y, z'
loop_
 _atom_site_type_symbol
 _atom_site_label
 _atom_site_symmetry_multiplicity
 _atom_site_fract_x
 _atom_site_fract_y
 _atom_site_fract_z
 _atom_site_occupancy
  Y  Y0  1  0.01986143  0.12019264  0.16521586  1
  Y  Y1  1  0.48013857  0.87980736  0.66521586  1
  Y  Y2  1  0.98013857  0.62019264  0.33478414  1
  Y  Y3  1  0.51986143  0.37980736  0.83478414  1
  H  H4  1  0.86375763  0.75725111  0.03247734  1
  H  H5  1  0.63624237  0.24274889  0.53247734  1
  H  H6  1  0.13624237  0.25725111  0.46752266  1
  H  H7  1  0.36375763  0.74274889  0.96752266  1
  C  C8  1  0.50668416  0.45282630  0.16893700  1
  C  C9  1  0.99331584  0.54717370  0.66893700  1
  C  C10  1  0.49331584  0.95282630  0.33106300  1
  C  C11  1  0.00668416  0.04717370  0.83106300  1
  O  O12  1  0.29741113  0.38848398  0.08852699  1
  O  O13  1  0.20258887  0.61151602  0.58852699  1
  O  O14  1  0.70258887  0.88848398  0.41147301  1
  O  O15  1  0.79741113  0.11151602  0.91147301  1
  O  O16  1  0.47323436  0.55686978  0.29304971  1
  O  O17  1  0.02676564  0.44313022  0.79304971  1
  O  O18  1  0.52676564  0.05686978  0.20695029  1
  O  O19  1  0.97323436  0.94313022  0.70695029  1
  O  O20  1  0.75751361  0.42014767  0.11817759  1
  O  O21  1  0.74248639  0.57985233  0.61817759  1
  O  O22  1  0.24248639  0.92014767  0.38182241  1
  O  O23  1  0.25751361  0.07985233  0.88182241  1
  O  O24  1  0.00037764  0.79934840  0.11320734  1
  O  O25  1  0.49962236  0.20065160  0.61320734  1
  O  O26  1  0.99962236  0.29934840  0.38679266  1
  O  O27  1  0.50037764  0.70065160  0.88679266  1
