# generated using pymatgen
data_Zn3B7IO13
_symmetry_space_group_name_H-M   'P 1'
_cell_length_a   8.56687922
_cell_length_b   8.56687922
_cell_length_c   8.56687922
_cell_angle_alpha   60.00000000
_cell_angle_beta   60.00000000
_cell_angle_gamma   60.00000000
_symmetry_Int_Tables_number   1
_chemical_formula_structural   Zn3B7IO13
_chemical_formula_sum   'Zn6 B14 I2 O26'
_cell_volume   444.58308368
_cell_formula_units_Z   2
loop_
 _symmetry_equiv_pos_site_id
 _symmetry_equiv_pos_as_xyz
  1  'x, y, z'
loop_
 _atom_site_type_symbol
 _atom_site_label
 _atom_site_symmetry_multiplicity
 _atom_site_fract_x
 _atom_site_fract_y
 _atom_site_fract_z
 _atom_site_occupancy
  B  B0  1  0.07998131  0.07998131  0.76005606  1
  B  B1  1  0.07998131  0.76005606  0.07998131  1
  B  B2  1  0.07998131  0.07998131  0.07998131  1
  B  B3  1  0.57998131  0.57998131  0.26005606  1
  B  B4  1  0.76005606  0.07998131  0.07998131  1
  B  B5  1  0.57998131  0.26005606  0.57998131  1
  B  B6  1  0.26005606  0.57998131  0.57998131  1
  B  B7  1  0.57998131  0.57998131  0.57998131  1
  B  B8  1  0.75000000  0.25000000  0.75000000  1
  B  B9  1  0.25000000  0.75000000  0.25000000  1
  B  B10  1  0.25000000  0.25000000  0.75000000  1
  B  B11  1  0.75000000  0.75000000  0.25000000  1
  B  B12  1  0.25000000  0.75000000  0.75000000  1
  B  B13  1  0.75000000  0.25000000  0.25000000  1
  I  I14  1  0.25000000  0.25000000  0.25000000  1
  I  I15  1  0.75000000  0.75000000  0.75000000  1
  O  O16  1  0.25820916  0.93608220  0.70389585  1
  O  O17  1  0.10181279  0.70389585  0.93608220  1
  O  O18  1  0.93608220  0.25820916  0.10181279  1
  O  O19  1  0.93608220  0.10181279  0.70389585  1
  O  O20  1  0.60181279  0.43608220  0.20389585  1
  O  O21  1  0.70389585  0.10181279  0.25820916  1
  O  O22  1  0.70389585  0.25820916  0.93608220  1
  O  O23  1  0.75820916  0.20389585  0.43608220  1
  O  O24  1  0.25820916  0.70389585  0.10181279  1
  O  O25  1  0.20389585  0.75820916  0.60181279  1
  O  O26  1  0.10181279  0.93608220  0.25820916  1
  O  O27  1  0.43608220  0.60181279  0.75820916  1
  O  O28  1  0.10181279  0.25820916  0.70389585  1
  O  O29  1  0.75820916  0.60181279  0.20389585  1
  O  O30  1  0.70389585  0.93608220  0.10181279  1
  O  O31  1  0.43608220  0.20389585  0.60181279  1
  O  O32  1  0.93608220  0.70389585  0.25820916  1
  O  O33  1  0.20389585  0.43608220  0.75820916  1
  O  O34  1  0.25820916  0.10181279  0.93608220  1
  O  O35  1  0.60181279  0.75820916  0.43608220  1
  O  O36  1  0.43608220  0.75820916  0.20389585  1
  O  O37  1  0.20389585  0.60181279  0.43608220  1
  O  O38  1  0.60181279  0.20389585  0.75820916  1
  O  O39  1  0.75820916  0.43608220  0.60181279  1
  O  O40  1  -0.00000000  0.00000000  -0.00000000  1
  O  O41  1  0.50000000  0.50000000  0.50000000  1
  Zn  Zn42  1  0.50000000  0.00000000  0.50000000  1
  Zn  Zn43  1  0.00000000  0.50000000  -0.00000000  1
  Zn  Zn44  1  1.00000000  0.00000000  0.50000000  1
  Zn  Zn45  1  0.50000000  0.50000000  0.00000000  1
  Zn  Zn46  1  0.00000000  0.50000000  0.50000000  1
  Zn  Zn47  1  0.50000000  0.00000000  0.00000000  1
