# generated using pymatgen
data_Ba2MgSi2O7
_symmetry_space_group_name_H-M   'P 1'
_cell_length_a   8.20360000
_cell_length_b   8.20360000
_cell_length_c   5.40580000
_cell_angle_alpha   90.00000000
_cell_angle_beta   90.00000000
_cell_angle_gamma   90.00000000
_symmetry_Int_Tables_number   1
_chemical_formula_structural   Ba2MgSi2O7
_chemical_formula_sum   'Ba4 Mg2 Si4 O14'
_cell_volume   363.80522049
_cell_formula_units_Z   2
loop_
 _symmetry_equiv_pos_site_id
 _symmetry_equiv_pos_as_xyz
  1  'x, y, z'
loop_
 _atom_site_type_symbol
 _atom_site_label
 _atom_site_symmetry_multiplicity
 _atom_site_fract_x
 _atom_site_fract_y
 _atom_site_fract_z
 _atom_site_occupancy
  Ba  Ba0  1  0.16495000  0.66495000  0.50954000  1.0
  Ba  Ba1  1  0.66495000  0.83505000  0.49046000  1.0
  Ba  Ba2  1  0.33505000  0.16495000  0.49046000  1.0
  Ba  Ba3  1  0.83505000  0.33505000  0.50954000  1.0
  Mg  Mg4  1  0.00000000  0.00000000  0.00000000  1.0
  Mg  Mg5  1  0.50000000  0.50000000  0.00000000  1.0
  Si  Si6  1  0.36340000  0.86340000  0.95590000  1.0
  Si  Si7  1  0.63660000  0.13660000  0.95590000  1.0
  Si  Si8  1  0.86340000  0.63660000  0.04410000  1.0
  Si  Si9  1  0.13660000  0.36340000  0.04410000  1.0
  O  O10  1  0.42280000  0.69440000  0.82240000  1.0
  O  O11  1  0.57720000  0.30560000  0.82240000  1.0
  O  O12  1  0.30560000  0.42280000  0.17760000  1.0
  O  O13  1  0.69440000  0.57720000  0.17760000  1.0
  O  O14  1  0.19440000  0.92280000  0.82240000  1.0
  O  O15  1  0.92280000  0.80560000  0.17760000  1.0
  O  O16  1  0.07720000  0.19440000  0.17760000  1.0
  O  O17  1  0.80560000  0.07720000  0.82240000  1.0
  O  O18  1  0.35900000  0.85900000  0.25180000  1.0
  O  O19  1  0.85900000  0.64100000  0.74820000  1.0
  O  O20  1  0.00000000  0.50000000  0.13860000  1.0
  O  O21  1  0.50000000  0.00000000  0.86140000  1.0
  O  O22  1  0.64100000  0.14100000  0.25180000  1.0
  O  O23  1  0.14100000  0.35900000  0.74820000  1.0
