# generated using pymatgen
data_TiNb(BiO3)3
_symmetry_space_group_name_H-M   'P 1'
_cell_length_a   5.43768600
_cell_length_b   5.50739400
_cell_length_c   13.02227030
_cell_angle_alpha   90.00000000
_cell_angle_beta   101.77190495
_cell_angle_gamma   90.00000000
_symmetry_Int_Tables_number   1
_chemical_formula_structural   TiNb(BiO3)3
_chemical_formula_sum   'Ti2 Nb2 Bi6 O18'
_cell_volume   381.78184552
_cell_formula_units_Z   2
loop_
 _symmetry_equiv_pos_site_id
 _symmetry_equiv_pos_as_xyz
  1  'x, y, z'
loop_
 _atom_site_type_symbol
 _atom_site_label
 _atom_site_symmetry_multiplicity
 _atom_site_fract_x
 _atom_site_fract_y
 _atom_site_fract_z
 _atom_site_occupancy
  Ti  Ti0  1  0.66297500  0.96416000  0.82284200  1
  Ti  Ti1  1  0.33702500  0.46416000  0.17715800  1
  Nb  Nb2  1  0.83432500  0.96073900  0.17589300  1
  Nb  Nb3  1  0.16567500  0.46073900  0.82410700  1
  Bi  Bi4  1  0.25521100  0.01401400  0.99946400  1
  Bi  Bi5  1  0.74478900  0.51401400  0.00053600  1
  Bi  Bi6  1  0.02275800  0.00343900  0.60093900  1
  Bi  Bi7  1  0.42879000  0.00793500  0.39964900  1
  Bi  Bi8  1  0.97724200  0.50343900  0.39906100  1
  Bi  Bi9  1  0.57121000  0.50793500  0.60035100  1
  O  O10  1  0.65630700  0.94899100  0.68460900  1
  O  O11  1  0.97045700  0.95082800  0.32025600  1
  O  O12  1  0.34369300  0.44899100  0.31539100  1
  O  O13  1  0.02954300  0.45082800  0.67974400  1
  O  O14  1  0.67254800  0.91810500  0.00166400  1
  O  O15  1  0.32745200  0.41810500  0.99833600  1
  O  O16  1  0.96891400  0.72541000  0.86824800  1
  O  O17  1  0.10235600  0.72254500  0.13176200  1
  O  O18  1  0.03108600  0.22541000  0.13175200  1
  O  O19  1  0.89764400  0.22254500  0.86823800  1
  O  O20  1  0.47030100  0.64344300  0.82752700  1
  O  O21  1  0.63794900  0.63737400  0.17258800  1
  O  O22  1  0.52969900  0.14344300  0.17247300  1
  O  O23  1  0.36205100  0.13737400  0.82741200  1
  O  O24  1  0.25849500  0.73806200  0.50191600  1
  O  O25  1  0.75602300  0.73845500  0.49809000  1
  O  O26  1  0.74150500  0.23806200  0.49808400  1
  O  O27  1  0.24397700  0.23845500  0.50191000  1
