# generated using pymatgen
data_Bi14SO24
_symmetry_space_group_name_H-M   'P 1'
_cell_length_a   8.63641829
_cell_length_b   8.65695727
_cell_length_c   10.49105111
_cell_angle_alpha   114.36252507
_cell_angle_beta   114.30096005
_cell_angle_gamma   90.01099672
_symmetry_Int_Tables_number   1
_chemical_formula_structural   Bi14SO24
_chemical_formula_sum   'Bi14 S1 O24'
_cell_volume   637.42093503
_cell_formula_units_Z   1
loop_
 _symmetry_equiv_pos_site_id
 _symmetry_equiv_pos_as_xyz
  1  'x, y, z'
loop_
 _atom_site_type_symbol
 _atom_site_label
 _atom_site_symmetry_multiplicity
 _atom_site_fract_x
 _atom_site_fract_y
 _atom_site_fract_z
 _atom_site_occupancy
  Bi  Bi0  1  0.45163329  0.21263033  0.00000000  1
  Bi  Bi1  1  0.28563210  0.46469172  0.33882095  1
  Bi  Bi2  1  0.12573439  0.72082297  0.66279494  1
  Bi  Bi3  1  0.79185838  0.45511934  0.00000000  1
  Bi  Bi4  1  0.65973565  0.66437721  0.32281817  1
  Bi  Bi5  1  0.20747502  0.55546706  0.00000000  1
  Bi  Bi6  1  0.54349458  0.94702010  0.66838855  1
  Bi  Bi7  1  0.06020606  0.87442701  0.33381188  1
  Bi  Bi8  1  0.55422021  0.79677904  0.00000000  1
  Bi  Bi9  1  0.94681115  0.12587077  0.66117905  1
  Bi  Bi10  1  0.46293945  0.05802803  0.33720506  1
  Bi  Bi11  1  0.33691748  0.34155904  0.67718183  1
  Bi  Bi12  1  0.87510603  0.27863155  0.33161145  1
  Bi  Bi13  1  0.72639418  0.54061513  0.66618812  1
  O  O14  1  0.82748727  0.50084067  0.49015675  1
  O  O15  1  0.70824528  0.39930814  0.15707249  1
  O  O16  1  0.39922406  0.45159206  0.15890006  1
  O  O17  1  0.50733166  0.67179580  0.49273014  1
  O  O18  1  0.11970461  0.61878836  0.23831081  1
  O  O19  1  0.38322411  0.88107477  0.76258993  1
  O  O20  1  0.96330422  0.96531994  0.85638690  1
  O  O21  1  0.99341992  0.82838518  0.49114128  1
  O  O22  1  0.76299739  0.71091766  0.15818918  1
  O  O23  1  0.44946852  0.76385813  0.16020544  1
  O  O24  1  0.33733052  0.01068392  0.50984325  1
  O  O25  1  0.66887753  0.99048972  0.49086729  1
  O  O26  1  0.55117279  0.24223565  0.84292751  1
  O  O27  1  0.00609132  0.79520272  0.00000000  1
  O  O28  1  0.24032400  0.29269200  0.84109994  1
  O  O29  1  0.01460152  0.17906566  0.50726986  1
  O  O30  1  0.79738443  0.98490195  0.00000000  1
  O  O31  1  0.62063418  0.11848484  0.23741007  1
  O  O32  1  0.88139380  0.38047755  0.76168919  1
  O  O33  1  0.10691732  0.10893304  0.14361310  1
  O  O34  1  0.50227864  0.33724390  0.50885872  1
  O  O35  1  0.60480821  0.55272848  0.84181082  1
  O  O36  1  0.28926308  0.60365269  0.83979456  1
  O  O37  1  0.17801024  0.49962243  0.50913271  1
  S  S38  1  0.96994342  0.96446745  0.00000000  1
