# generated using pymatgen
data_Sr(AlS2)2
_symmetry_space_group_name_H-M   'P 1'
_cell_length_a   11.99332931
_cell_length_b   11.99332931
_cell_length_c   12.24695321
_cell_angle_alpha   104.74303587
_cell_angle_beta   104.74303587
_cell_angle_gamma   118.70290608
_symmetry_Int_Tables_number   1
_chemical_formula_structural   Sr(AlS2)2
_chemical_formula_sum   'Sr8 Al16 S32'
_cell_volume   1338.83018037
_cell_formula_units_Z   8
loop_
 _symmetry_equiv_pos_site_id
 _symmetry_equiv_pos_as_xyz
  1  'x, y, z'
loop_
 _atom_site_type_symbol
 _atom_site_label
 _atom_site_symmetry_multiplicity
 _atom_site_fract_x
 _atom_site_fract_y
 _atom_site_fract_z
 _atom_site_occupancy
  Sr  Sr0  1  0.87338300  0.12758200  0.74960500  1
  Sr  Sr1  1  0.37458000  0.62917200  0.75410200  1
  Sr  Sr2  1  0.12405100  0.87888800  0.25248100  1
  Sr  Sr3  1  0.62227600  0.36948700  0.24369900  1
  Sr  Sr4  1  0.62679900  0.87857700  0.24833700  1
  Sr  Sr5  1  0.37156600  0.12595000  0.74801300  1
  Sr  Sr6  1  0.12118300  0.37415300  0.24632100  1
  Sr  Sr7  1  0.87910900  0.62926900  0.75021300  1
  Al  Al8  1  0.60572400  0.62919000  0.49806800  1
  Al  Al9  1  0.13437900  0.61151100  0.00410400  1
  Al  Al10  1  0.86443000  0.88757300  0.00154800  1
  Al  Al11  1  0.89384000  0.36359500  0.49747300  1
  Al  Al12  1  0.39431600  0.36436400  0.49857300  1
  Al  Al13  1  0.86788100  0.38927100  0.99928500  1
  Al  Al14  1  0.13820100  0.11314000  0.00028800  1
  Al  Al15  1  0.11252300  0.63528600  0.49930200  1
  Al  Al16  1  0.47256000  0.86826400  0.50238300  1
  Al  Al17  1  0.36684100  0.47019600  0.99856500  1
  Al  Al18  1  0.63347900  0.03262300  0.99947600  1
  Al  Al19  1  0.02875500  0.13246100  0.49638900  1
  Al  Al20  1  0.53366300  0.13595500  0.50309200  1
  Al  Al21  1  0.63874300  0.53021800  0.99703700  1
  Al  Al22  1  0.35787000  0.96541200  0.99732700  1
  Al  Al23  1  0.96687600  0.86359500  0.49600900  1
  S  S24  1  0.19456900  0.33967500  0.50321100  1
  S  S25  1  0.83979700  0.18759200  0.99520400  1
  S  S26  1  0.16407400  0.31281600  0.00295000  1
  S  S27  1  0.31029100  0.66096200  0.49706200  1
  S  S28  1  0.81034000  0.66144400  0.49525000  1
  S  S29  1  0.15928600  0.80957600  0.00426000  1
  S  S30  1  0.84320100  0.68910500  0.00111500  1
  S  S31  1  0.69328300  0.33835600  0.50023600  1
  S  S32  1  0.92354900  0.41995200  0.83657700  1
  S  S33  1  0.58197800  0.58077400  0.65743400  1
  S  S34  1  0.07484700  0.57666000  0.65970800  1
  S  S35  1  0.91359900  0.91464800  0.83794100  1
  S  S36  1  0.08398700  0.58046500  0.16235000  1
  S  S37  1  0.41359700  0.41507400  0.33609800  1
  S  S38  1  0.91547100  0.41846100  0.33492600  1
  S  S39  1  0.08445900  0.08569100  0.16094900  1
  S  S40  1  0.41891700  0.41860200  0.83357700  1
  S  S41  1  0.58146100  0.07953900  0.65779400  1
  S  S42  1  0.07815800  0.07610500  0.66282300  1
  S  S43  1  0.41421800  0.91339500  0.83496000  1
  S  S44  1  0.57898900  0.57576100  0.16213100  1
  S  S45  1  0.41695700  0.91808900  0.34150700  1
  S  S46  1  0.92201900  0.91746700  0.33945300  1
  S  S47  1  0.58127200  0.08503400  0.16052300  1
  S  S48  1  0.85696000  0.15991600  0.49799600  1
  S  S49  1  0.66379700  0.85442900  0.00483900  1
  S  S50  1  0.33586900  0.64035100  0.00017400  1
  S  S51  1  0.64327600  0.83658800  0.49449800  1
  S  S52  1  0.14797400  0.83539900  0.50190300  1
  S  S53  1  0.34081100  0.14854600  0.99979100  1
  S  S54  1  0.66619600  0.35615800  0.00265000  1
  S  S55  1  0.35908400  0.16836300  0.50533800  1
