# generated using pymatgen
data_GeH8
_symmetry_space_group_name_H-M   'P 1'
_cell_length_a   4.90275800
_cell_length_b   4.90275800
_cell_length_c   4.90275800
_cell_angle_alpha   92.58573335
_cell_angle_beta   118.51852513
_cell_angle_gamma   118.51852513
_symmetry_Int_Tables_number   1
_chemical_formula_structural   GeH8
_chemical_formula_sum   'Ge1 H8'
_cell_volume   85.10319159
_cell_formula_units_Z   1
loop_
 _symmetry_equiv_pos_site_id
 _symmetry_equiv_pos_as_xyz
  1  'x, y, z'
loop_
 _atom_site_type_symbol
 _atom_site_label
 _atom_site_symmetry_multiplicity
 _atom_site_fract_x
 _atom_site_fract_y
 _atom_site_fract_z
 _atom_site_occupancy
  Ge  Ge0  1  0.00000000  0.50000000  0.50000000  1
  H  H1  1  0.00000000  0.05629835  0.05629835  1
  H  H2  1  0.00000000  0.94370165  0.94370165  1
  H  H3  1  0.50000000  0.30648102  0.80648102  1
  H  H4  1  0.50000000  0.19351898  0.69351898  1
  H  H5  1  0.24938927  0.61808837  0.36869910  1
  H  H6  1  0.75061073  0.11930983  0.36869910  1
  H  H7  1  0.75061073  0.63130090  0.38191163  1
  H  H8  1  0.24938927  0.63130090  0.88069017  1
