# generated using pymatgen
data_Al(IO3)3
_symmetry_space_group_name_H-M   'P 1'
_cell_length_a   9.00300013
_cell_length_b   9.00300013
_cell_length_c   5.24060000
_cell_angle_alpha   90.00000000
_cell_angle_beta   90.00000000
_cell_angle_gamma   120.00000000
_symmetry_Int_Tables_number   1
_chemical_formula_structural   Al(IO3)3
_chemical_formula_sum   'Al2 I6 O18'
_cell_volume   367.86304129
_cell_formula_units_Z   2
loop_
 _symmetry_equiv_pos_site_id
 _symmetry_equiv_pos_as_xyz
  1  'x, y, z'
loop_
 _atom_site_type_symbol
 _atom_site_label
 _atom_site_symmetry_multiplicity
 _atom_site_fract_x
 _atom_site_fract_y
 _atom_site_fract_z
 _atom_site_occupancy
  Al  Al0  1  0.33333333  0.66666667  0.08450000  1.0
  Al  Al1  1  0.66666667  0.33333333  0.58450000  1.0
  I  I2  1  0.33604900  0.31284900  0.22430000  1.0
  I  I3  1  0.66395100  0.68715100  0.72430000  1.0
  I  I4  1  0.02320000  0.33604900  0.72430000  1.0
  I  I5  1  0.97680000  0.66395100  0.22430000  1.0
  I  I6  1  0.31284900  0.97680000  0.72430000  1.0
  I  I7  1  0.68715100  0.02320000  0.22430000  1.0
  O  O8  1  0.13169900  0.55049900  0.87510000  1.0
  O  O9  1  0.51729900  0.80659900  0.30580000  1.0
  O  O10  1  0.28930000  0.48270100  0.30580000  1.0
  O  O11  1  0.19340100  0.71070000  0.30580000  1.0
  O  O12  1  0.48270100  0.19340100  0.80580000  1.0
  O  O13  1  0.80659900  0.28930000  0.80580000  1.0
  O  O14  1  0.58120000  0.13169900  0.37510000  1.0
  O  O15  1  0.21759900  0.17209900  0.47960000  1.0
  O  O16  1  0.17209900  0.95450000  0.97960000  1.0
  O  O17  1  0.44950100  0.58120000  0.87510000  1.0
  O  O18  1  0.82790100  0.04550000  0.47960000  1.0
  O  O19  1  0.55049900  0.41880000  0.37510000  1.0
  O  O20  1  0.41880000  0.86830100  0.87510000  1.0
  O  O21  1  0.95450000  0.78240100  0.47960000  1.0
  O  O22  1  0.71070000  0.51729900  0.80580000  1.0
  O  O23  1  0.04550000  0.21759900  0.97960000  1.0
  O  O24  1  0.86830100  0.44950100  0.37510000  1.0
  O  O25  1  0.78240100  0.82790100  0.97960000  1.0
