# generated using pymatgen
data_H2Br
_symmetry_space_group_name_H-M   'P 1'
_cell_length_a   3.88488579
_cell_length_b   4.96485667
_cell_length_c   5.93097410
_cell_angle_alpha   113.59488626
_cell_angle_beta   95.69821641
_cell_angle_gamma   90.27684703
_symmetry_Int_Tables_number   1
_chemical_formula_structural   H2Br
_chemical_formula_sum   'H4 Br2'
_cell_volume   104.18964345
_cell_formula_units_Z   2
loop_
 _symmetry_equiv_pos_site_id
 _symmetry_equiv_pos_as_xyz
  1  'x, y, z'
loop_
 _atom_site_type_symbol
 _atom_site_label
 _atom_site_symmetry_multiplicity
 _atom_site_fract_x
 _atom_site_fract_y
 _atom_site_fract_z
 _atom_site_occupancy
  H  H0  1  0.94483822  0.45724153  0.11599700  1
  H  H1  1  0.00107694  0.98375451  0.16916106  1
  H  H2  1  0.67145382  0.43381170  0.59208350  1
  H  H3  1  0.74334436  0.56732179  0.57538860  1
  Br  Br4  1  0.20596841  0.84362698  0.32398760  1
  Br  Br5  1  0.74194425  0.16743749  0.96155825  1
