# generated using pymatgen
data_BiTeBr
_symmetry_space_group_name_H-M   'P 1'
_cell_length_a   4.25871377
_cell_length_b   4.25871377
_cell_length_c   13.20068838
_cell_angle_alpha   90.00000000
_cell_angle_beta   90.00000000
_cell_angle_gamma   120.00000000
_symmetry_Int_Tables_number   1
_chemical_formula_structural   BiTeBr
_chemical_formula_sum   'Bi2 Te2 Br2'
_cell_volume   207.34048763
_cell_formula_units_Z   2
loop_
 _symmetry_equiv_pos_site_id
 _symmetry_equiv_pos_as_xyz
  1  'x, y, z'
loop_
 _atom_site_type_symbol
 _atom_site_label
 _atom_site_symmetry_multiplicity
 _atom_site_fract_x
 _atom_site_fract_y
 _atom_site_fract_z
 _atom_site_occupancy
  Bi  Bi0  1  0.33333333  0.66666667  0.14175795  1
  Bi  Bi1  1  0.66666667  0.33333333  0.64175795  1
  Te  Te2  1  0.66666667  0.33333333  0.27437298  1
  Te  Te3  1  0.33333333  0.66666667  0.77437298  1
  Br  Br4  1  0.00000000  0.00000000  0.00196807  1
  Br  Br5  1  0.00000000  0.00000000  0.50196807  1
