# generated using pymatgen
data_NbTl3O4
_symmetry_space_group_name_H-M   'P 1'
_cell_length_a   6.12172205
_cell_length_b   6.12172205
_cell_length_c   6.12172205
_cell_angle_alpha   94.02142880
_cell_angle_beta   116.06308655
_cell_angle_gamma   119.37410297
_symmetry_Int_Tables_number   1
_chemical_formula_structural   NbTl3O4
_chemical_formula_sum   'Nb1 Tl3 O4'
_cell_volume   167.20788151
_cell_formula_units_Z   1
loop_
 _symmetry_equiv_pos_site_id
 _symmetry_equiv_pos_as_xyz
  1  'x, y, z'
loop_
 _atom_site_type_symbol
 _atom_site_label
 _atom_site_symmetry_multiplicity
 _atom_site_fract_x
 _atom_site_fract_y
 _atom_site_fract_z
 _atom_site_occupancy
  Nb  Nb0  1  0.00688845  0.50000000  0.50688845  1
  O  O1  1  0.16915673  0.31634814  0.48550487  1
  O  O2  1  0.16915673  0.68365186  0.85280858  1
  O  O3  1  0.59451515  0.24101877  0.35349638  1
  O  O4  1  0.11247761  0.75898123  0.35349638  1
  Tl  Tl5  1  0.52515682  0.77246488  0.29762170  1
  Tl  Tl6  1  0.04849271  -0.00000000  0.04849271  1
  Tl  Tl7  1  0.52515682  0.22753512  0.75269194  1
