# generated using pymatgen
data_HgP2
_symmetry_space_group_name_H-M   'P 1'
_cell_length_a   5.11840762
_cell_length_b   5.38570833
_cell_length_c   9.80196879
_cell_angle_alpha   90.00000000
_cell_angle_beta   90.00000000
_cell_angle_gamma   90.00000000
_symmetry_Int_Tables_number   1
_chemical_formula_structural   HgP2
_chemical_formula_sum   'Hg4 P8'
_cell_volume   270.20352760
_cell_formula_units_Z   4
loop_
 _symmetry_equiv_pos_site_id
 _symmetry_equiv_pos_as_xyz
  1  'x, y, z'
loop_
 _atom_site_type_symbol
 _atom_site_label
 _atom_site_symmetry_multiplicity
 _atom_site_fract_x
 _atom_site_fract_y
 _atom_site_fract_z
 _atom_site_occupancy
  Hg  Hg0  1  0.75010662  0.10639510  0.84305096  1
  Hg  Hg1  1  0.25010662  0.89360490  0.15694904  1
  Hg  Hg2  1  0.75010662  0.39360490  0.34305096  1
  Hg  Hg3  1  0.25010662  0.60639510  0.65694904  1
  P  P4  1  0.40481677  0.26855409  0.00770241  1
  P  P5  1  0.90481677  0.73144591  0.99229759  1
  P  P6  1  0.40481677  0.23144591  0.50770241  1
  P  P7  1  0.90481677  0.76855409  0.49229759  1
  P  P8  1  0.59777561  0.93599767  0.62075325  1
  P  P9  1  0.09777561  0.06400233  0.37924675  1
  P  P10  1  0.59777561  0.56400233  0.12075325  1
  P  P11  1  0.09777561  0.43599767  0.87924675  1
