# generated using pymatgen
data_Ba2Ti(SiO4)2
_symmetry_space_group_name_H-M   'P 1'
_cell_length_a   8.51590000
_cell_length_b   8.51590000
_cell_length_c   5.21840000
_cell_angle_alpha   90.00000000
_cell_angle_beta   90.00000000
_cell_angle_gamma   90.00000000
_symmetry_Int_Tables_number   1
_chemical_formula_structural   Ba2Ti(SiO4)2
_chemical_formula_sum   'Ba4 Ti2 Si4 O16'
_cell_volume   378.44125278
_cell_formula_units_Z   2
loop_
 _symmetry_equiv_pos_site_id
 _symmetry_equiv_pos_as_xyz
  1  'x, y, z'
loop_
 _atom_site_type_symbol
 _atom_site_label
 _atom_site_symmetry_multiplicity
 _atom_site_fract_x
 _atom_site_fract_y
 _atom_site_fract_z
 _atom_site_occupancy
  Ba  Ba0  1  0.17450000  0.67450000  0.00000000  1.0
  Ba  Ba1  1  0.32550000  0.17450000  0.00000000  1.0
  Ba  Ba2  1  0.67450000  0.82550000  0.00000000  1.0
  Ba  Ba3  1  0.82550000  0.32550000  0.00000000  1.0
  Ti  Ti4  1  0.00000000  0.00000000  0.53800000  1.0
  Ti  Ti5  1  0.50000000  0.50000000  0.53800000  1.0
  Si  Si6  1  0.37220000  0.87220000  0.53700000  1.0
  Si  Si7  1  0.12780000  0.37220000  0.53700000  1.0
  Si  Si8  1  0.87220000  0.62780000  0.53700000  1.0
  Si  Si9  1  0.62780000  0.12780000  0.53700000  1.0
  O  O10  1  0.00000000  0.00000000  0.18200000  1.0
  O  O11  1  0.50000000  0.50000000  0.18200000  1.0
  O  O12  1  0.55900000  0.28670000  0.63400000  1.0
  O  O13  1  0.44100000  0.71330000  0.63400000  1.0
  O  O14  1  0.28670000  0.44100000  0.63400000  1.0
  O  O15  1  0.71330000  0.55900000  0.63400000  1.0
  O  O16  1  0.21330000  0.94100000  0.63400000  1.0
  O  O17  1  0.05900000  0.21330000  0.63400000  1.0
  O  O18  1  0.94100000  0.78670000  0.63400000  1.0
  O  O19  1  0.78670000  0.05900000  0.63400000  1.0
  O  O20  1  0.50000000  0.00000000  0.64200000  1.0
  O  O21  1  0.00000000  0.50000000  0.64200000  1.0
  O  O22  1  0.62060000  0.12060000  0.19200000  1.0
  O  O23  1  0.87940000  0.62060000  0.19200000  1.0
  O  O24  1  0.12060000  0.37940000  0.19200000  1.0
  O  O25  1  0.37940000  0.87940000  0.19200000  1.0
