# generated using pymatgen
data_MgTiNb2(PbO3)4
_symmetry_space_group_name_H-M   'P 1'
_cell_length_a   5.77901000
_cell_length_b   5.87667600
_cell_length_c   8.03807600
_cell_angle_alpha   90.00000000
_cell_angle_beta   90.00000000
_cell_angle_gamma   90.00000000
_symmetry_Int_Tables_number   1
_chemical_formula_structural   MgTiNb2(PbO3)4
_chemical_formula_sum   'Mg1 Ti1 Nb2 Pb4 O12'
_cell_volume   272.98406807
_cell_formula_units_Z   1
loop_
 _symmetry_equiv_pos_site_id
 _symmetry_equiv_pos_as_xyz
  1  'x, y, z'
loop_
 _atom_site_type_symbol
 _atom_site_label
 _atom_site_symmetry_multiplicity
 _atom_site_fract_x
 _atom_site_fract_y
 _atom_site_fract_z
 _atom_site_occupancy
  Mg  Mg0  1  0.00000000  0.50836400  0.00000000  1
  Ti  Ti1  1  0.50000000  0.98477800  0.50000000  1
  Nb  Nb2  1  0.50000000  0.01341300  0.00000000  1
  Nb  Nb3  1  0.00000000  0.48616800  0.50000000  1
  Pb  Pb4  1  0.00000000  0.95837800  0.75796800  1
  Pb  Pb5  1  0.50000000  0.46736000  0.76803100  1
  Pb  Pb6  1  0.00000000  0.95837800  0.24203200  1
  Pb  Pb7  1  0.50000000  0.46736000  0.23196900  1
  O  O8  1  0.00000000  0.55553200  0.74057200  1
  O  O9  1  0.50000000  0.03692000  0.74547900  1
  O  O10  1  0.00000000  0.55553200  0.25942800  1
  O  O11  1  0.50000000  0.03692000  0.25452100  1
  O  O12  1  0.73156700  0.28140500  0.00000000  1
  O  O13  1  0.24828600  0.78990300  0.00000000  1
  O  O14  1  0.74560400  0.28262000  0.50000000  1
  O  O15  1  0.25181800  0.79056700  0.50000000  1
  O  O16  1  0.26843300  0.28140500  0.00000000  1
  O  O17  1  0.75171400  0.78990300  0.00000000  1
  O  O18  1  0.25439600  0.28262000  0.50000000  1
  O  O19  1  0.74818200  0.79056700  0.50000000  1
