# generated using pymatgen
data_Al4(B2O5)3
_symmetry_space_group_name_H-M   'P 1'
_cell_length_a   6.48309947
_cell_length_b   6.94613917
_cell_length_c   6.94613917
_cell_angle_alpha   110.78199575
_cell_angle_beta   108.12630883
_cell_angle_gamma   108.12630883
_symmetry_Int_Tables_number   1
_chemical_formula_structural   Al4(B2O5)3
_chemical_formula_sum   'Al4 B6 O15'
_cell_volume   244.67434535
_cell_formula_units_Z   1
loop_
 _symmetry_equiv_pos_site_id
 _symmetry_equiv_pos_as_xyz
  1  'x, y, z'
loop_
 _atom_site_type_symbol
 _atom_site_label
 _atom_site_symmetry_multiplicity
 _atom_site_fract_x
 _atom_site_fract_y
 _atom_site_fract_z
 _atom_site_occupancy
  Al  Al0  1  0.00000000  0.00000000  0.00000000  1.0
  Al  Al1  1  0.29182000  0.49182000  0.21144000  1.0
  Al  Al2  1  0.80000000  0.71962000  0.50818000  1.0
  Al  Al3  1  0.08038000  0.78856000  0.28038000  1.0
  B  B4  1  0.85480000  0.32730000  0.24890000  1.0
  B  B5  1  0.52750000  0.92160000  0.67270000  1.0
  B  B6  1  0.60590000  0.75110000  0.07840000  1.0
  B  B7  1  0.50850000  0.23820000  0.33080000  1.0
  B  B8  1  0.27030000  0.09260000  0.76180000  1.0
  B  B9  1  0.17770000  0.66920000  0.90740000  1.0
  O  O10  1  0.52743000  0.45258000  0.42431000  1.0
  O  O11  1  0.07485000  0.97173000  0.54742000  1.0
  O  O12  1  0.10312000  0.57569000  0.02827000  1.0
  O  O13  1  0.69097000  0.18701000  0.29760000  1.0
  O  O14  1  0.50396000  0.11059000  0.81299000  1.0
  O  O15  1  0.39337000  0.70240000  0.88941000  1.0
  O  O16  1  0.28153000  0.04283000  0.25716000  1.0
  O  O17  1  0.23870000  0.21433000  0.95717000  1.0
  O  O18  1  0.02437000  0.74284000  0.78567000  1.0
  O  O19  1  0.02130000  0.27628000  0.20032000  1.0
  O  O20  1  0.74502000  0.92404000  0.72372000  1.0
  O  O21  1  0.82098000  0.79968000  0.07596000  1.0
  O  O22  1  0.57379000  0.69977000  0.24580000  1.0
  O  O23  1  0.87402000  0.54603000  0.30023000  1.0
  O  O24  1  0.32799000  0.75420000  0.45397000  1.0
