# generated using pymatgen
data_Sr(BH)12
_symmetry_space_group_name_H-M   'P 1'
_cell_length_a   7.03752231
_cell_length_b   7.03752231
_cell_length_c   11.43608733
_cell_angle_alpha   90.00000000
_cell_angle_beta   90.00000000
_cell_angle_gamma   120.00000000
_symmetry_Int_Tables_number   1
_chemical_formula_structural   Sr(BH)12
_chemical_formula_sum   'Sr2 B24 H24'
_cell_volume   490.50977261
_cell_formula_units_Z   2
loop_
 _symmetry_equiv_pos_site_id
 _symmetry_equiv_pos_as_xyz
  1  'x, y, z'
loop_
 _atom_site_type_symbol
 _atom_site_label
 _atom_site_symmetry_multiplicity
 _atom_site_fract_x
 _atom_site_fract_y
 _atom_site_fract_z
 _atom_site_occupancy
  Sr  Sr0  1  0.66666667  0.33333333  0.25088740  1
  Sr  Sr1  1  0.33333333  0.66666667  0.75088740  1
  B  B2  1  0.92778004  0.39974631  0.59492047  1
  B  B3  1  0.47196627  0.07221996  0.59492047  1
  B  B4  1  0.60025369  0.52803373  0.59492047  1
  B  B5  1  0.52803373  0.60025369  0.09492047  1
  B  B6  1  0.39974631  0.92778004  0.09492047  1
  B  B7  1  0.07221996  0.47196627  0.09492047  1
  B  B8  1  0.50432048  0.29163185  0.50614276  1
  B  B9  1  0.78731137  0.49567952  0.50614276  1
  B  B10  1  0.70836815  0.21268863  0.50614276  1
  B  B11  1  0.21268863  0.70836815  0.00614276  1
  B  B12  1  0.29163185  0.50432048  0.00614276  1
  B  B13  1  0.49567952  0.78731137  0.00614276  1
  B  B14  1  0.82783254  0.37274180  0.73971530  1
  B  B15  1  0.54490926  0.17216746  0.73971530  1
  B  B16  1  0.62725820  0.45509074  0.73971530  1
  B  B17  1  0.45509074  0.62725820  0.23971530  1
  B  B18  1  0.37274180  0.82783254  0.23971530  1
  B  B19  1  0.17216746  0.54490926  0.23971530  1
  B  B20  1  0.40421312  0.26744364  0.65121956  1
  B  B21  1  0.86323052  0.59578688  0.65121956  1
  B  B22  1  0.73255636  0.13676948  0.65121956  1
  B  B23  1  0.13676948  0.73255636  0.15121956  1
  B  B24  1  0.26744364  0.40421312  0.15121956  1
  B  B25  1  0.59578688  0.86323052  0.15121956  1
  H  H26  1  0.11208128  0.44618653  0.57127738  1
  H  H27  1  0.33410525  0.88791872  0.57127738  1
  H  H28  1  0.55381347  0.66589475  0.57127738  1
  H  H29  1  0.66589475  0.55381347  0.07127738  1
  H  H30  1  0.44618653  0.11208128  0.07127738  1
  H  H31  1  0.88791872  0.33410525  0.07127738  1
  H  H32  1  0.38697944  0.26081985  0.42364651  1
  H  H33  1  0.87384041  0.61302056  0.42364651  1
  H  H34  1  0.73918015  0.12615959  0.42364651  1
  H  H35  1  0.12615959  0.73918015  0.92364651  1
  H  H36  1  0.26081985  0.38697944  0.92364651  1
  H  H37  1  0.61302056  0.87384041  0.92364651  1
  H  H38  1  0.93854931  0.39655313  0.82400436  1
  H  H39  1  0.45800382  0.06145069  0.82400436  1
  H  H40  1  0.60344687  0.54199618  0.82400436  1
  H  H41  1  0.54199618  0.60344687  0.32400436  1
  H  H42  1  0.39655313  0.93854931  0.32400436  1
  H  H43  1  0.06145069  0.45800382  0.32400436  1
  H  H44  1  0.21979503  0.22071994  0.67267145  1
  H  H45  1  0.00092491  0.78020497  0.67267145  1
  H  H46  1  0.77928006  0.99907509  0.67267145  1
  H  H47  1  0.99907509  0.77928006  0.17267145  1
  H  H48  1  0.22071994  0.21979503  0.17267145  1
  H  H49  1  0.78020497  0.00092491  0.17267145  1
