# generated using pymatgen
data_Li2SiGeSe4
_symmetry_space_group_name_H-M   'P 1'
_cell_length_a   6.02574219
_cell_length_b   6.34746524
_cell_length_c   6.34746524
_cell_angle_alpha   94.67729378
_cell_angle_beta   115.73527166
_cell_angle_gamma   115.73527166
_symmetry_Int_Tables_number   1
_chemical_formula_structural   Li2SiGeSe4
_chemical_formula_sum   'Li2 Si1 Ge1 Se4'
_cell_volume   185.77259839
_cell_formula_units_Z   1
loop_
 _symmetry_equiv_pos_site_id
 _symmetry_equiv_pos_as_xyz
  1  'x, y, z'
loop_
 _atom_site_type_symbol
 _atom_site_label
 _atom_site_symmetry_multiplicity
 _atom_site_fract_x
 _atom_site_fract_y
 _atom_site_fract_z
 _atom_site_occupancy
  Ge  Ge0  1  0.07223952  0.08958035  0.08958035  1
  Li  Li1  1  0.50837955  0.76030298  0.24469663  1
  Li  Li2  1  0.50837955  0.24469663  0.76030298  1
  Se  Se3  1  0.55064658  0.15071169  0.15071169  1
  Se  Se4  1  0.02217739  0.85192510  0.45006427  1
  Se  Se5  1  0.02217739  0.45006427  0.85192510  1
  Se  Se6  1  0.34296918  0.46845263  0.46845263  1
  Si  Si7  1  0.97299382  0.48287636  0.48287636  1
