# generated using pymatgen
data_NaAlS2
_symmetry_space_group_name_H-M   'P 1'
_cell_length_a   6.30335570
_cell_length_b   6.30335570
_cell_length_c   6.30335570
_cell_angle_alpha   90.23052550
_cell_angle_beta   119.86699541
_cell_angle_gamma   119.86699541
_symmetry_Int_Tables_number   1
_chemical_formula_structural   NaAlS2
_chemical_formula_sum   'Na2 Al2 S4'
_cell_volume   177.44707889
_cell_formula_units_Z   2
loop_
 _symmetry_equiv_pos_site_id
 _symmetry_equiv_pos_as_xyz
  1  'x, y, z'
loop_
 _atom_site_type_symbol
 _atom_site_label
 _atom_site_symmetry_multiplicity
 _atom_site_fract_x
 _atom_site_fract_y
 _atom_site_fract_z
 _atom_site_occupancy
  Al  Al0  1  0.50000000  0.75000000  0.25000000  1
  Al  Al1  1  0.00000000  0.00000000  0.00000000  1
  Na  Na2  1  0.50000000  0.25000000  0.75000000  1
  Na  Na3  1  -0.00000000  0.50000000  0.50000000  1
  S  S4  1  0.93463289  0.87500000  0.30963289  1
  S  S5  1  0.06536711  0.37500000  0.94036711  1
  S  S6  1  0.43463289  0.05963289  0.12500000  1
  S  S7  1  0.56536711  0.69036711  0.62500000  1
