# generated using pymatgen
data_Li3PSe4
_symmetry_space_group_name_H-M   'P 1'
_cell_length_a   6.22476007
_cell_length_b   6.22476007
_cell_length_c   6.22476007
_cell_angle_alpha   90.00000000
_cell_angle_beta   90.00000000
_cell_angle_gamma   90.00000000
_symmetry_Int_Tables_number   1
_chemical_formula_structural   Li3PSe4
_chemical_formula_sum   'Li3 P1 Se4'
_cell_volume   241.19474939
_cell_formula_units_Z   1
loop_
 _symmetry_equiv_pos_site_id
 _symmetry_equiv_pos_as_xyz
  1  'x, y, z'
loop_
 _atom_site_type_symbol
 _atom_site_label
 _atom_site_symmetry_multiplicity
 _atom_site_fract_x
 _atom_site_fract_y
 _atom_site_fract_z
 _atom_site_occupancy
  Li  Li0  1  0.00000000  0.00000000  0.50000000  1
  Li  Li1  1  0.00000000  0.50000000  0.00000000  1
  Li  Li2  1  0.50000000  0.00000000  0.00000000  1
  P  P3  1  0.00000000  0.00000000  0.00000000  1
  Se  Se4  1  0.20549562  0.20549562  0.20549562  1
  Se  Se5  1  0.20549562  0.79450438  0.79450438  1
  Se  Se6  1  0.79450438  0.20549562  0.79450438  1
  Se  Se7  1  0.79450438  0.79450438  0.20549562  1
