# generated using pymatgen
data_Ba(BH)12
_symmetry_space_group_name_H-M   'P 1'
_cell_length_a   7.30536962
_cell_length_b   7.30536962
_cell_length_c   11.81023968
_cell_angle_alpha   90.00000000
_cell_angle_beta   90.00000000
_cell_angle_gamma   120.00000000
_symmetry_Int_Tables_number   1
_chemical_formula_structural   Ba(BH)12
_chemical_formula_sum   'Ba2 B24 H24'
_cell_volume   545.85052389
_cell_formula_units_Z   2
loop_
 _symmetry_equiv_pos_site_id
 _symmetry_equiv_pos_as_xyz
  1  'x, y, z'
loop_
 _atom_site_type_symbol
 _atom_site_label
 _atom_site_symmetry_multiplicity
 _atom_site_fract_x
 _atom_site_fract_y
 _atom_site_fract_z
 _atom_site_occupancy
  Ba  Ba0  1  0.66666667  0.33333333  0.26313762  1
  Ba  Ba1  1  0.33333333  0.66666667  0.76313762  1
  B  B2  1  0.91478851  0.38613349  0.61094105  1
  B  B3  1  0.47134498  0.08521149  0.61094105  1
  B  B4  1  0.61386651  0.52865502  0.61094105  1
  B  B5  1  0.52865502  0.61386651  0.11094105  1
  B  B6  1  0.38613349  0.91478851  0.11094105  1
  B  B7  1  0.08521149  0.47134498  0.11094105  1
  B  B8  1  0.51239923  0.30025636  0.52478695  1
  B  B9  1  0.78785713  0.48760077  0.52478695  1
  B  B10  1  0.69974364  0.21214287  0.52478695  1
  B  B11  1  0.21214287  0.69974364  0.02478695  1
  B  B12  1  0.30025636  0.51239923  0.02478695  1
  B  B13  1  0.48760077  0.78785713  0.02478695  1
  B  B14  1  0.82005893  0.36497219  0.75158935  1
  B  B15  1  0.54491326  0.17994107  0.75158935  1
  B  B16  1  0.63502781  0.45508674  0.75158935  1
  B  B17  1  0.45508674  0.63502781  0.25158935  1
  B  B18  1  0.36497219  0.82005893  0.25158935  1
  B  B19  1  0.17994107  0.54491326  0.25158935  1
  B  B20  1  0.41730256  0.28065360  0.66541716  1
  B  B21  1  0.86335104  0.58269744  0.66541716  1
  B  B22  1  0.71934640  0.13664896  0.66541716  1
  B  B23  1  0.13664896  0.71934640  0.16541716  1
  B  B24  1  0.28065360  0.41730256  0.16541716  1
  B  B25  1  0.58269744  0.86335104  0.16541716  1
  H  H26  1  0.08932561  0.42176276  0.58799630  1
  H  H27  1  0.33243715  0.91067439  0.58799630  1
  H  H28  1  0.57823724  0.66756285  0.58799630  1
  H  H29  1  0.66756285  0.57823724  0.08799630  1
  H  H30  1  0.42176276  0.08932561  0.08799630  1
  H  H31  1  0.91067439  0.33243715  0.08799630  1
  H  H32  1  0.39981872  0.27575186  0.44537764  1
  H  H33  1  0.87593314  0.60018128  0.44537764  1
  H  H34  1  0.72424814  0.12406686  0.44537764  1
  H  H35  1  0.12406686  0.72424814  0.94537764  1
  H  H36  1  0.27575186  0.39981872  0.94537764  1
  H  H37  1  0.60018128  0.87593314  0.94537764  1
  H  H38  1  0.92531941  0.38404105  0.83344420  1
  H  H39  1  0.45872164  0.07468059  0.83344420  1
  H  H40  1  0.61595895  0.54127836  0.83344420  1
  H  H41  1  0.54127836  0.61595895  0.33344420  1
  H  H42  1  0.38404105  0.92531941  0.33344420  1
  H  H43  1  0.07468059  0.45872164  0.33344420  1
  H  H44  1  0.24077997  0.24186441  0.68540350  1
  H  H45  1  0.00108444  0.75922003  0.68540350  1
  H  H46  1  0.75813559  0.99891556  0.68540350  1
  H  H47  1  0.99891556  0.75813559  0.18540350  1
  H  H48  1  0.24186441  0.24077997  0.18540350  1
  H  H49  1  0.75922003  0.00108444  0.18540350  1
