# generated using pymatgen
data_Y2Be2GeO7
_symmetry_space_group_name_H-M   'P 1'
_cell_length_a   7.39900000
_cell_length_b   7.39900000
_cell_length_c   4.79700000
_cell_angle_alpha   90.00000000
_cell_angle_beta   90.00000000
_cell_angle_gamma   90.00000000
_symmetry_Int_Tables_number   1
_chemical_formula_structural   Y2Be2GeO7
_chemical_formula_sum   'Y4 Be4 Ge2 O14'
_cell_volume   262.61272920
_cell_formula_units_Z   2
loop_
 _symmetry_equiv_pos_site_id
 _symmetry_equiv_pos_as_xyz
  1  'x, y, z'
loop_
 _atom_site_type_symbol
 _atom_site_label
 _atom_site_symmetry_multiplicity
 _atom_site_fract_x
 _atom_site_fract_y
 _atom_site_fract_z
 _atom_site_occupancy
  Y  Y0  1  0.15930000  0.34070000  0.50510000  1.0
  Y  Y1  1  0.34070000  0.84070000  0.49490000  1.0
  Y  Y2  1  0.65930000  0.15930000  0.49490000  1.0
  Y  Y3  1  0.84070000  0.65930000  0.50510000  1.0
  Be  Be4  1  0.36600000  0.13400000  0.94700000  1.0
  Be  Be5  1  0.13400000  0.63400000  0.05300000  1.0
  Be  Be6  1  0.86600000  0.36600000  0.05300000  1.0
  Be  Be7  1  0.63400000  0.86600000  0.94700000  1.0
  Ge  Ge8  1  0.00000000  0.00000000  0.00000000  1.0
  Ge  Ge9  1  0.50000000  0.50000000  0.00000000  1.0
  O  O10  1  0.50000000  0.00000000  0.81200000  1.0
  O  O11  1  0.00000000  0.50000000  0.18800000  1.0
  O  O12  1  0.35700000  0.14300000  0.27500000  1.0
  O  O13  1  0.14300000  0.64300000  0.72500000  1.0
  O  O14  1  0.85700000  0.35700000  0.72500000  1.0
  O  O15  1  0.64300000  0.85700000  0.27500000  1.0
  O  O16  1  0.17200000  0.08400000  0.79100000  1.0
  O  O17  1  0.08400000  0.82800000  0.20900000  1.0
  O  O18  1  0.91600000  0.17200000  0.20900000  1.0
  O  O19  1  0.82800000  0.91600000  0.79100000  1.0
  O  O20  1  0.32800000  0.58400000  0.20900000  1.0
  O  O21  1  0.67200000  0.41600000  0.20900000  1.0
  O  O22  1  0.58400000  0.67200000  0.79100000  1.0
  O  O23  1  0.41600000  0.32800000  0.79100000  1.0
