# generated using pymatgen
data_SrYSi4N7
_symmetry_space_group_name_H-M   'P 1'
_cell_length_a   6.00661760
_cell_length_b   6.00661760
_cell_length_c   9.81040156
_cell_angle_alpha   90.00000000
_cell_angle_beta   90.00000000
_cell_angle_gamma   120.00000000
_symmetry_Int_Tables_number   1
_chemical_formula_structural   SrYSi4N7
_chemical_formula_sum   'Sr2 Y2 Si8 N14'
_cell_volume   306.53310548
_cell_formula_units_Z   2
loop_
 _symmetry_equiv_pos_site_id
 _symmetry_equiv_pos_as_xyz
  1  'x, y, z'
loop_
 _atom_site_type_symbol
 _atom_site_label
 _atom_site_symmetry_multiplicity
 _atom_site_fract_x
 _atom_site_fract_y
 _atom_site_fract_z
 _atom_site_occupancy
  Sr  Sr0  1  0.66666667  0.33333333  0.63236066  1
  Sr  Sr1  1  0.33333333  0.66666667  0.13236066  1
  Y  Y2  1  0.66666667  0.33333333  0.26306982  1
  Y  Y3  1  0.33333333  0.66666667  0.76306982  1
  Si  Si4  1  0.00000000  0.00000000  0.68743115  1
  Si  Si5  1  0.00000000  0.00000000  0.18743115  1
  Si  Si6  1  0.82647850  0.17352150  0.95370933  1
  Si  Si7  1  0.34704300  0.17352150  0.95370933  1
  Si  Si8  1  0.82647850  0.65295700  0.95370933  1
  Si  Si9  1  0.17352150  0.82647850  0.45370933  1
  Si  Si10  1  0.65295700  0.82647850  0.45370933  1
  Si  Si11  1  0.17352150  0.34704300  0.45370933  1
  N  N12  1  0.97848512  0.48924256  0.90120347  1
  N  N13  1  0.51075744  0.02151488  0.90120347  1
  N  N14  1  0.51075744  0.48924256  0.90120347  1
  N  N15  1  0.02151488  0.51075744  0.40120347  1
  N  N16  1  0.48924256  0.97848512  0.40120347  1
  N  N17  1  0.48924256  0.51075744  0.40120347  1
  N  N18  1  0.15365490  0.84634510  0.62719628  1
  N  N19  1  0.69269020  0.84634510  0.62719628  1
  N  N20  1  0.15365490  0.30730980  0.62719628  1
  N  N21  1  0.84634510  0.15365490  0.12719628  1
  N  N22  1  0.30730980  0.15365490  0.12719628  1
  N  N23  1  0.84634510  0.69269020  0.12719628  1
  N  N24  1  0.00000000  0.00000000  0.87801014  1
  N  N25  1  0.00000000  0.00000000  0.37801014  1
