# generated using pymatgen
data_Li2SnGeSe4
_symmetry_space_group_name_H-M   'P 1'
_cell_length_a   6.19054622
_cell_length_b   6.26340477
_cell_length_c   6.26340477
_cell_angle_alpha   100.41216720
_cell_angle_beta   113.56807160
_cell_angle_gamma   113.56807160
_symmetry_Int_Tables_number   1
_chemical_formula_structural   Li2SnGeSe4
_chemical_formula_sum   'Li2 Sn1 Ge1 Se4'
_cell_volume   186.51163088
_cell_formula_units_Z   1
loop_
 _symmetry_equiv_pos_site_id
 _symmetry_equiv_pos_as_xyz
  1  'x, y, z'
loop_
 _atom_site_type_symbol
 _atom_site_label
 _atom_site_symmetry_multiplicity
 _atom_site_fract_x
 _atom_site_fract_y
 _atom_site_fract_z
 _atom_site_occupancy
  Ge  Ge0  1  0.01665820  0.50722969  0.50722969  1
  Li  Li1  1  0.49485562  0.74853132  0.24583296  1
  Li  Li2  1  0.49485562  0.24583296  0.74853132  1
  Se  Se3  1  0.62932360  0.50282407  0.50282406  1
  Se  Se4  1  0.99249423  0.12935864  0.53793513  1
  Se  Se5  1  0.99249423  0.53793513  0.12935864  1
  Se  Se6  1  0.42878155  0.86917621  0.86917620  1
  Sn  Sn7  1  0.95058595  0.95915201  0.95915201  1
