# generated using pymatgen
data_CaBrCl
_symmetry_space_group_name_H-M   'P 1'
_cell_length_a   4.13661443
_cell_length_b   4.13661443
_cell_length_c   6.14912629
_cell_angle_alpha   90.00000000
_cell_angle_beta   90.00000000
_cell_angle_gamma   120.00000000
_symmetry_Int_Tables_number   1
_chemical_formula_structural   CaBrCl
_chemical_formula_sum   'Ca1 Br1 Cl1'
_cell_volume   91.12428403
_cell_formula_units_Z   1
loop_
 _symmetry_equiv_pos_site_id
 _symmetry_equiv_pos_as_xyz
  1  'x, y, z'
loop_
 _atom_site_type_symbol
 _atom_site_label
 _atom_site_symmetry_multiplicity
 _atom_site_fract_x
 _atom_site_fract_y
 _atom_site_fract_z
 _atom_site_occupancy
  Ca  Ca0  1  0.00000000  0.00000000  0.65222080  1
  Br  Br1  1  0.33333333  0.66666667  0.91251303  1
  Cl  Cl2  1  0.66666667  0.33333333  0.43526718  1
