# generated using pymatgen
data_Y6Zn(SiS7)2
_symmetry_space_group_name_H-M   'P 1'
_cell_length_a   9.93633292
_cell_length_b   9.93633292
_cell_length_c   5.63403100
_cell_angle_alpha   90.00000000
_cell_angle_beta   90.00000000
_cell_angle_gamma   120.00000000
_symmetry_Int_Tables_number   1
_chemical_formula_structural   Y6Zn(SiS7)2
_chemical_formula_sum   'Y6 Zn1 Si2 S14'
_cell_volume   481.72826936
_cell_formula_units_Z   1
loop_
 _symmetry_equiv_pos_site_id
 _symmetry_equiv_pos_as_xyz
  1  'x, y, z'
loop_
 _atom_site_type_symbol
 _atom_site_label
 _atom_site_symmetry_multiplicity
 _atom_site_fract_x
 _atom_site_fract_y
 _atom_site_fract_z
 _atom_site_occupancy
  Y  Y0  1  0.64448200  0.76727900  0.74978600  1
  Y  Y1  1  0.12279700  0.35551800  0.74978600  1
  Y  Y2  1  0.23272100  0.87720300  0.74978600  1
  Y  Y3  1  0.35555500  0.23276500  0.25074200  1
  Y  Y4  1  0.87721000  0.64444500  0.25074200  1
  Y  Y5  1  0.76723500  0.12279000  0.25074200  1
  Zn  Zn6  1  0.00000000  0.00000000  0.51000000  1
  Si  Si7  1  0.33333333  0.66666667  0.16510200  1
  Si  Si8  1  0.66666667  0.33333333  0.66174600  1
  S  S9  1  0.33333333  0.66666667  0.53862400  1
  S  S10  1  0.66666667  0.33333333  0.03606900  1
  S  S11  1  0.75037300  0.83822900  0.27657200  1
  S  S12  1  0.08785600  0.24962700  0.27657200  1
  S  S13  1  0.16177100  0.91214400  0.27657200  1
  S  S14  1  0.24995200  0.16478900  0.75669900  1
  S  S15  1  0.91483700  0.75004800  0.75669900  1
  S  S16  1  0.83521100  0.08516300  0.75669900  1
  S  S17  1  0.47991400  0.89201000  0.01325700  1
  S  S18  1  0.41209600  0.52008600  0.01325700  1
  S  S19  1  0.10799000  0.58790400  0.01325700  1
  S  S20  1  0.52023000  0.10811900  0.51043900  1
  S  S21  1  0.58788900  0.47977000  0.51043900  1
  S  S22  1  0.89188100  0.41211100  0.51043900  1
