# generated using pymatgen
data_Y6Mg(SiS7)2
_symmetry_space_group_name_H-M   'P 1'
_cell_length_a   9.95619853
_cell_length_b   9.95619853
_cell_length_c   5.62041100
_cell_angle_alpha   90.00000000
_cell_angle_beta   90.00000000
_cell_angle_gamma   120.00000000
_symmetry_Int_Tables_number   1
_chemical_formula_structural   Y6Mg(SiS7)2
_chemical_formula_sum   'Y6 Mg1 Si2 S14'
_cell_volume   482.48720673
_cell_formula_units_Z   1
loop_
 _symmetry_equiv_pos_site_id
 _symmetry_equiv_pos_as_xyz
  1  'x, y, z'
loop_
 _atom_site_type_symbol
 _atom_site_label
 _atom_site_symmetry_multiplicity
 _atom_site_fract_x
 _atom_site_fract_y
 _atom_site_fract_z
 _atom_site_occupancy
  Y  Y0  1  0.97643233  0.43288567  0.75214400  1
  Y  Y1  1  0.45645333  0.02356767  0.75214400  1
  Y  Y2  1  0.56711433  0.54354667  0.75214400  1
  Y  Y3  1  0.68980133  0.90048367  0.24889200  1
  Y  Y4  1  0.21068233  0.31019867  0.24889200  1
  Y  Y5  1  0.09951633  0.78931767  0.24889200  1
  Mg  Mg6  1  0.33333333  0.66666667  0.51295500  1
  Si  Si7  1  0.66666667  0.33333333  0.16516500  1
  Si  Si8  1  -0.00000000  0.00000000  0.66065700  1
  S  S9  1  0.66666667  0.33333333  0.53968000  1
  S  S10  1  -0.00000000  0.00000000  0.03625300  1
  S  S11  1  0.08256733  0.50359067  0.27418200  1
  S  S12  1  0.42102333  0.91743267  0.27418200  1
  S  S13  1  0.49640933  0.57897667  0.27418200  1
  S  S14  1  0.58351033  0.83192067  0.75727400  1
  S  S15  1  0.24841033  0.41648967  0.75727400  1
  S  S16  1  0.16807933  0.75158967  0.75727400  1
  S  S17  1  0.81335033  0.55796967  0.01353800  1
  S  S18  1  0.74461933  0.18664967  0.01353800  1
  S  S19  1  0.44203033  0.25538067  0.01353800  1
  S  S20  1  0.85312933  0.77536667  0.51041200  1
  S  S21  1  0.92223733  0.14687067  0.51041200  1
  S  S22  1  0.22463333  0.07776267  0.51041200  1
