# generated using pymatgen
data_Al3BC3
_symmetry_space_group_name_H-M   'P 1'
_cell_length_a   5.89381263
_cell_length_b   5.89381263
_cell_length_c   15.84543758
_cell_angle_alpha   90.00000000
_cell_angle_beta   90.00000000
_cell_angle_gamma   120.00000000
_symmetry_Int_Tables_number   1
_chemical_formula_structural   Al3BC3
_chemical_formula_sum   'Al18 B6 C18'
_cell_volume   476.68064604
_cell_formula_units_Z   6
loop_
 _symmetry_equiv_pos_site_id
 _symmetry_equiv_pos_as_xyz
  1  'x, y, z'
loop_
 _atom_site_type_symbol
 _atom_site_label
 _atom_site_symmetry_multiplicity
 _atom_site_fract_x
 _atom_site_fract_y
 _atom_site_fract_z
 _atom_site_occupancy
  Al  Al0  1  0.68020417  0.00000000  0.12292411  1
  Al  Al1  1  0.00000000  0.68020417  0.12292411  1
  Al  Al2  1  0.31979582  0.31979582  0.12292411  1
  Al  Al3  1  0.68021601  0.68021601  0.62294574  1
  Al  Al4  1  0.31978399  0.00000000  0.62294574  1
  Al  Al5  1  0.00000000  0.31978399  0.62294574  1
  Al  Al6  1  0.00000000  0.34767871  0.87751845  1
  Al  Al7  1  0.65232129  0.65232129  0.87751845  1
  Al  Al8  1  0.34767871  0.00000000  0.87751845  1
  Al  Al9  1  0.00000000  0.65233447  0.37753279  1
  Al  Al10  1  0.34766552  0.34766552  0.37753279  1
  Al  Al11  1  0.65233447  0.00000000  0.37753279  1
  Al  Al12  1  0.33333333  0.66666667  0.73783959  1
  Al  Al13  1  0.33333333  0.66666667  0.23784560  1
  Al  Al14  1  0.66666667  0.33333333  0.73783959  1
  Al  Al15  1  0.66666667  0.33333333  0.23784560  1
  Al  Al16  1  0.00000000  0.00000000  0.26739277  1
  Al  Al17  1  0.00000000  0.00000000  0.76740160  1
  B  B18  1  0.00000000  0.00000000  0.49040422  1
  B  B19  1  0.00000000  0.00000000  0.99037352  1
  B  B20  1  0.66666667  0.33333333  0.50635470  1
  B  B21  1  0.66666667  0.33333333  0.00632184  1
  B  B22  1  0.33333333  0.66666667  0.50635470  1
  B  B23  1  0.33333333  0.66666667  0.00632184  1
  C  C24  1  0.00000000  0.00000000  0.40053780  1
  C  C25  1  0.00000000  0.00000000  0.90052841  1
  C  C26  1  0.66666667  0.33333333  0.59695162  1
  C  C27  1  0.66666667  0.33333333  0.09693627  1
  C  C28  1  0.00000000  0.66692798  0.25011703  1
  C  C29  1  0.33307202  0.33307202  0.25011703  1
  C  C30  1  0.66692798  0.00000000  0.25011703  1
  C  C31  1  0.00000000  0.33307290  0.75011917  1
  C  C32  1  0.66692710  0.66692710  0.75011917  1
  C  C33  1  0.33307290  0.00000000  0.75011917  1
  C  C34  1  0.00000000  0.00000000  0.58109099  1
  C  C35  1  0.00000000  0.00000000  0.08108154  1
  C  C36  1  0.66666667  0.33333333  0.41588721  1
  C  C37  1  0.66666667  0.33333333  0.91587259  1
  C  C38  1  0.33333333  0.66666667  0.59695162  1
  C  C39  1  0.33333333  0.66666667  0.09693627  1
  C  C40  1  0.33333333  0.66666667  0.41588721  1
  C  C41  1  0.33333333  0.66666667  0.91587259  1
