# generated using pymatgen
data_Bi14WO24
_symmetry_space_group_name_H-M   'P 1'
_cell_length_a   8.67702295
_cell_length_b   8.70415834
_cell_length_c   10.50879670
_cell_angle_alpha   114.45900971
_cell_angle_beta   114.36439077
_cell_angle_gamma   89.55979063
_symmetry_Int_Tables_number   1
_chemical_formula_structural   Bi14WO24
_chemical_formula_sum   'Bi14 W1 O24'
_cell_volume   645.25856977
_cell_formula_units_Z   1
loop_
 _symmetry_equiv_pos_site_id
 _symmetry_equiv_pos_as_xyz
  1  'x, y, z'
loop_
 _atom_site_type_symbol
 _atom_site_label
 _atom_site_symmetry_multiplicity
 _atom_site_fract_x
 _atom_site_fract_y
 _atom_site_fract_z
 _atom_site_occupancy
  Bi  Bi0  1  0.93888655  0.53401568  0.65651307  1
  Bi  Bi1  1  0.45955409  0.28291618  0.32951114  1
  Bi  Bi2  1  0.34240307  0.33844467  0.67680138  1
  Bi  Bi3  1  0.87162410  0.05718120  0.32958464  1
  Bi  Bi4  1  0.44690137  0.79253861  0.99622937  1
  Bi  Bi5  1  0.71444208  0.12770765  0.65558004  1
  Bi  Bi6  1  0.27258704  0.87257610  0.32858736  1
  Bi  Bi7  1  0.79199222  0.55429051  0.99884817  1
  Bi  Bi8  1  0.12692098  0.94821248  0.66153312  1
  Bi  Bi9  1  0.66036221  0.66339072  0.32201971  1
  Bi  Bi10  1  0.21078671  0.45330452  0.99660133  1
  Bi  Bi11  1  0.53050625  0.71900643  0.65572893  1
  Bi  Bi12  1  0.05216387  0.46463311  0.33320353  1
  Bi  Bi13  1  0.55572756  0.21403006  0.00180834  1
  W  W14  1  0.98661582  0.96895696  0.96828511  1
  O  O15  1  0.98925335  0.79019716  0.01217308  1
  O  O16  1  0.32930432  0.49987311  0.50298431  1
  O  O17  1  0.54931871  0.60530829  0.83925320  1
  O  O18  1  0.23805068  0.55243399  0.83945797  1
  O  O19  1  0.00478449  0.33286376  0.49768072  1
  O  O20  1  0.61894778  0.12182755  0.23419477  1
  O  O21  1  0.87834715  0.37867879  0.75623748  1
  O  O22  1  0.49311154  0.17925493  0.50279467  1
  O  O23  1  0.59985835  0.29243376  0.83800290  1
  O  O24  1  0.29295826  0.24388937  0.83966334  1
  O  O25  1  0.82544915  0.99618938  0.48772242  1
  O  O26  1  0.17700606  0.01407126  0.50634463  1
  O  O27  1  0.70598849  0.76569633  0.15436558  1
  O  O28  1  0.39447268  0.70914667  0.15439019  1
  O  O29  1  0.20329044  0.06771931  0.03533674  1
  O  O30  1  0.49441132  0.82540502  0.48524328  1
  O  O31  1  0.11439603  0.62338759  0.23629462  1
  O  O32  1  0.38038769  0.88254065  0.76144779  1
  O  O33  1  0.88109500  0.88888935  0.75942733  1
  O  O34  1  0.99078959  0.67062919  0.49164690  1
  O  O35  1  0.75856442  0.45716375  0.16115920  1
  O  O36  1  0.45231434  0.40595179  0.15863898  1
  O  O37  1  0.66510968  0.50454998  0.48493727  1
  O  O38  1  0.87281553  0.11919215  0.05276642  1
