# generated using pymatgen
data_Ga(IO3)3
_symmetry_space_group_name_H-M   'P 1'
_cell_length_a   9.09239983
_cell_length_b   9.09239983
_cell_length_c   5.28620000
_cell_angle_alpha   90.00000000
_cell_angle_beta   90.00000000
_cell_angle_gamma   120.00000000
_symmetry_Int_Tables_number   1
_chemical_formula_structural   Ga(IO3)3
_chemical_formula_sum   'Ga2 I6 O18'
_cell_volume   378.46983636
_cell_formula_units_Z   2
loop_
 _symmetry_equiv_pos_site_id
 _symmetry_equiv_pos_as_xyz
  1  'x, y, z'
loop_
 _atom_site_type_symbol
 _atom_site_label
 _atom_site_symmetry_multiplicity
 _atom_site_fract_x
 _atom_site_fract_y
 _atom_site_fract_z
 _atom_site_occupancy
  Ga  Ga0  1  0.66666667  0.33333333  0.39431000  1.0
  Ga  Ga1  1  0.33333333  0.66666667  0.89431000  1.0
  I  I2  1  0.68630100  0.66293700  0.75374000  1.0
  I  I3  1  0.31369900  0.33706300  0.25374000  1.0
  I  I4  1  0.02336400  0.68630100  0.25374000  1.0
  I  I5  1  0.33706300  0.02336400  0.75374000  1.0
  I  I6  1  0.66293700  0.97663600  0.25374000  1.0
  I  I7  1  0.97663600  0.31369900  0.75374000  1.0
  O  O8  1  0.83070100  0.77990100  0.50550000  1.0
  O  O9  1  0.57720100  0.44990100  0.60770000  1.0
  O  O10  1  0.87270000  0.42279900  0.60770000  1.0
  O  O11  1  0.77990100  0.94920000  0.00550000  1.0
  O  O12  1  0.22009900  0.05080000  0.50550000  1.0
  O  O13  1  0.05080000  0.83070100  0.00550000  1.0
  O  O14  1  0.71370100  0.19160100  0.16670000  1.0
  O  O15  1  0.55009900  0.12730000  0.60770000  1.0
  O  O16  1  0.47790000  0.28629900  0.16670000  1.0
  O  O17  1  0.94920000  0.16929900  0.50550000  1.0
  O  O18  1  0.42279900  0.55009900  0.10770000  1.0
  O  O19  1  0.12730000  0.57720100  0.10770000  1.0
  O  O20  1  0.28629900  0.80839900  0.66666667  1.0
  O  O21  1  0.52210000  0.71370100  0.66666667  1.0
  O  O22  1  0.44990100  0.87270000  0.10770000  1.0
  O  O23  1  0.80839900  0.52210000  0.16670000  1.0
  O  O24  1  0.16929900  0.22009900  0.00550000  1.0
  O  O25  1  0.19160100  0.47790000  0.66666667  1.0
