# generated using pymatgen
data_K3Ag9(SbS3)4
_symmetry_space_group_name_H-M   'P 1'
_cell_length_a   9.77205120
_cell_length_b   9.77205120
_cell_length_c   9.77205120
_cell_angle_alpha   105.80260731
_cell_angle_beta   111.33608769
_cell_angle_gamma   111.33608769
_symmetry_Int_Tables_number   1
_chemical_formula_structural   K3Ag9(SbS3)4
_chemical_formula_sum   'K3 Ag9 Sb4 S12'
_cell_volume   716.15816850
_cell_formula_units_Z   1
loop_
 _symmetry_equiv_pos_site_id
 _symmetry_equiv_pos_as_xyz
  1  'x, y, z'
loop_
 _atom_site_type_symbol
 _atom_site_label
 _atom_site_symmetry_multiplicity
 _atom_site_fract_x
 _atom_site_fract_y
 _atom_site_fract_z
 _atom_site_occupancy
  Ag  Ag0  1  0.49827900  0.15965100  0.01145000  1
  Ag  Ag1  1  0.50172100  0.51317100  0.66137200  1
  Ag  Ag2  1  0.17421500  0.66537900  0.16676200  1
  Ag  Ag3  1  0.82578500  0.99254700  0.49116400  1
  Ag  Ag4  1  0.49861700  0.83323800  0.00745300  1
  Ag  Ag5  1  0.50138300  0.50883600  0.33462100  1
  Ag  Ag6  1  0.85179900  0.33862800  0.84034900  1
  Ag  Ag7  1  0.14820100  0.98855000  0.48682900  1
  Ag  Ag8  1  0.50000000  0.25000000  0.75000000  1
  K  K9  1  0.00000000  0.00000000  0.00000000  1
  K  K10  1  0.00000000  0.33345200  0.33345200  1
  K  K11  1  0.00000000  0.66654800  0.66654800  1
  S  S12  1  0.68182600  0.10881500  0.89002800  1
  S  S13  1  0.31817400  0.20820200  0.42698900  1
  S  S14  1  0.20162300  0.40986200  0.11231200  1
  S  S15  1  0.79837700  0.91068900  0.20823900  1
  S  S16  1  0.29755000  0.88768800  0.08931100  1
  S  S17  1  0.70245000  0.79176100  0.59013800  1
  S  S18  1  0.78121300  0.57301100  0.89118500  1
  S  S19  1  0.21878700  0.10997200  0.79179800  1
  S  S20  1  0.02016900  0.68039200  0.33241600  1
  S  S21  1  0.97983100  0.31224700  0.66022300  1
  S  S22  1  0.34797600  0.66758400  0.68775300  1
  S  S23  1  0.65202400  0.33977700  0.31960800  1
  Sb  Sb24  1  0.49093300  0.86724500  0.60664600  1
  Sb  Sb25  1  0.50906700  0.11571300  0.37631200  1
  Sb  Sb26  1  0.26059900  0.39335400  0.88428700  1
  Sb  Sb27  1  0.73940100  0.62368800  0.13275500  1
