# generated using pymatgen
data_Li6Ca12Mo4N16O3
_symmetry_space_group_name_H-M   'P 1'
_cell_length_a   11.20140735
_cell_length_b   11.20140735
_cell_length_c   11.20140735
_cell_angle_alpha   109.47122063
_cell_angle_beta   109.47122063
_cell_angle_gamma   109.47122063
_symmetry_Int_Tables_number   1
_chemical_formula_structural   Li6Ca12Mo4N16O3
_chemical_formula_sum   'Li12 Ca24 Mo8 N32 O6'
_cell_volume   1081.92182796
_cell_formula_units_Z   2
loop_
 _symmetry_equiv_pos_site_id
 _symmetry_equiv_pos_as_xyz
  1  'x, y, z'
loop_
 _atom_site_type_symbol
 _atom_site_label
 _atom_site_symmetry_multiplicity
 _atom_site_fract_x
 _atom_site_fract_y
 _atom_site_fract_z
 _atom_site_occupancy
  Ca  Ca0  1  0.96109007  0.40349723  0.29131645  1
  Ca  Ca1  1  0.94240716  0.03890993  0.83022638  1
  Ca  Ca2  1  0.66977362  0.70868355  0.11218078  1
  Ca  Ca3  1  0.38781922  0.09650277  0.55759284  1
  Ca  Ca4  1  0.55759284  0.88781922  0.59650277  1
  Ca  Ca5  1  0.59650277  0.05759284  0.38781922  1
  Ca  Ca6  1  0.79131645  0.90349723  0.46109007  1
  Ca  Ca7  1  0.44240716  0.83022638  0.03890993  1
  Ca  Ca8  1  0.70868355  0.66977362  0.61218078  1
  Ca  Ca9  1  0.88781922  0.55759284  0.09650277  1
  Ca  Ca10  1  0.09650277  0.38781922  0.05759284  1
  Ca  Ca11  1  0.40349723  0.96109007  0.79131645  1
  Ca  Ca12  1  0.03890993  0.94240716  0.33022638  1
  Ca  Ca13  1  0.16977362  0.11218078  0.70868355  1
  Ca  Ca14  1  0.46109007  0.29131645  0.40349723  1
  Ca  Ca15  1  0.33022638  0.53890993  0.44240716  1
  Ca  Ca16  1  0.61218078  0.20868355  0.16977362  1
  Ca  Ca17  1  0.53890993  0.33022638  0.94240716  1
  Ca  Ca18  1  0.11218078  0.16977362  0.20868355  1
  Ca  Ca19  1  0.20868355  0.61218078  0.66977362  1
  Ca  Ca20  1  0.29131645  0.46109007  0.90349723  1
  Ca  Ca21  1  0.90349723  0.79131645  0.96109007  1
  Ca  Ca22  1  0.83022638  0.44240716  0.53890993  1
  Ca  Ca23  1  0.05759284  0.59650277  0.88781922  1
  Li  Li24  1  0.22557952  0.75000000  0.47557952  1
  Li  Li25  1  0.52442048  0.75000000  0.77442048  1
  Li  Li26  1  0.75000000  0.22557952  0.97557952  1
  Li  Li27  1  0.72557952  0.47557952  0.75000000  1
  Li  Li28  1  0.25000000  0.27442048  0.52442048  1
  Li  Li29  1  0.77442048  0.02442048  0.25000000  1
  Li  Li30  1  0.27442048  0.25000000  0.02442048  1
  Li  Li31  1  0.02442048  0.77442048  0.75000000  1
  Li  Li32  1  0.47557952  0.72557952  0.25000000  1
  Li  Li33  1  0.25000000  0.97557952  0.22557952  1
  Li  Li34  1  0.75000000  0.52442048  0.27442048  1
  Li  Li35  1  0.97557952  0.25000000  0.72557952  1
  Mo  Mo36  1  0.22531159  0.72531159  0.22531159  1
  Mo  Mo37  1  1.00000000  0.27468841  0.50000000  1
  Mo  Mo38  1  0.50000000  0.50000000  0.77468841  1
  Mo  Mo39  1  0.77468841  1.00000000  1.00000000  1
  Mo  Mo40  1  0.50000000  0.50000000  0.27468841  1
  Mo  Mo41  1  0.27468841  1.00000000  1.00000000  1
  Mo  Mo42  1  1.00000000  0.77468841  0.50000000  1
  Mo  Mo43  1  0.72531159  0.22531159  0.72531159  1
  N  N44  1  0.39032267  0.89032267  0.39032267  1
  N  N45  1  1.00000000  0.10967733  0.50000000  1
  N  N46  1  0.50000000  0.50000000  0.60967733  1
  N  N47  1  0.60967733  -0.00000000  -0.00000000  1
  N  N48  1  0.50000000  0.50000000  0.10967733  1
  N  N49  1  0.10967733  -0.00000000  0.00000000  1
  N  N50  1  1.00000000  0.60967733  0.50000000  1
  N  N51  1  0.89032267  0.39032267  0.89032267  1
  N  N52  1  0.13416283  0.58278235  0.26626551  1
  N  N53  1  0.94861952  0.86583717  0.63210268  1
  N  N54  1  0.86789732  0.73373449  0.31651684  1
  N  N55  1  0.18348316  0.91721765  0.55138048  1
  N  N56  1  0.55138048  0.68348316  0.41721765  1
  N  N57  1  0.41721765  0.05138048  0.18348316  1
  N  N58  1  0.76626551  0.08278235  0.63416283  1
  N  N59  1  0.44861952  0.63210268  0.86583717  1
  N  N60  1  0.73373449  0.86789732  0.81651684  1
  N  N61  1  0.68348316  0.55138048  0.91721765  1
  N  N62  1  0.91721765  0.18348316  0.05138048  1
  N  N63  1  0.58278235  0.13416283  0.76626551  1
  N  N64  1  0.86583717  0.94861952  0.13210268  1
  N  N65  1  0.36789732  0.31651684  0.73373449  1
  N  N66  1  0.63416283  0.26626551  0.58278235  1
  N  N67  1  0.13210268  0.36583717  0.44861952  1
  N  N68  1  0.81651684  0.23373449  0.36789732  1
  N  N69  1  0.36583717  0.13210268  0.94861952  1
  N  N70  1  0.31651684  0.36789732  0.23373449  1
  N  N71  1  0.23373449  0.81651684  0.86789732  1
  N  N72  1  0.26626551  0.63416283  0.08278235  1
  N  N73  1  0.08278235  0.76626551  0.13416283  1
  N  N74  1  0.63210268  0.44861952  0.36583717  1
  N  N75  1  0.05138048  0.41721765  0.68348316  1
  O  O76  1  0.62500000  0.87500000  0.25000000  1
  O  O77  1  0.75000000  0.37500000  0.12500000  1
  O  O78  1  0.25000000  0.12500000  0.37500000  1
  O  O79  1  0.37500000  0.75000000  0.62500000  1
  O  O80  1  0.12500000  0.25000000  0.87500000  1
  O  O81  1  0.87500000  0.62500000  0.75000000  1
