# generated using pymatgen
data_S
_symmetry_space_group_name_H-M   'P 1'
_cell_length_a   14.09050300
_cell_length_b   10.22707600
_cell_length_c   19.20966032
_cell_angle_alpha   90.00000000
_cell_angle_beta   111.23276575
_cell_angle_gamma   90.00000000
_symmetry_Int_Tables_number   1
_chemical_formula_structural   S
_chemical_formula_sum   S80
_cell_volume   2580.28704959
_cell_formula_units_Z   80
loop_
 _symmetry_equiv_pos_site_id
 _symmetry_equiv_pos_as_xyz
  1  'x, y, z'
loop_
 _atom_site_type_symbol
 _atom_site_label
 _atom_site_symmetry_multiplicity
 _atom_site_fract_x
 _atom_site_fract_y
 _atom_site_fract_z
 _atom_site_occupancy
  S  S0  1  0.00000000  0.98775300  0.00000000  1
  S  S1  1  -0.00000000  0.48783900  0.50000000  1
  S  S2  1  0.50000000  0.80557200  0.00000000  1
  S  S3  1  0.50000000  0.30466600  0.50000000  1
  S  S4  1  0.87506900  0.36800900  0.45092300  1
  S  S5  1  0.12493100  0.36800900  0.54907700  1
  S  S6  1  0.81472700  0.32355600  0.53153900  1
  S  S7  1  0.18527300  0.32355600  0.46846100  1
  S  S8  1  0.71432600  0.47166600  0.53075400  1
  S  S9  1  0.28567400  0.47166600  0.46924600  1
  S  S10  1  0.57495200  0.42431700  0.44998900  1
  S  S11  1  0.42504800  0.42431700  0.55001100  1
  S  S12  1  0.92945100  0.94998500  0.45719300  1
  S  S13  1  0.07054900  0.94998500  0.54280700  1
  S  S14  1  0.84181500  0.80928600  0.48273700  1
  S  S15  1  0.15818500  0.80928600  0.51726300  1
  S  S16  1  0.77660700  0.89593100  0.55182800  1
  S  S17  1  0.22339300  0.89593100  0.44817200  1
  S  S18  1  0.64285300  0.98423400  0.48388100  1
  S  S19  1  0.35714700  0.98423400  0.51611900  1
  S  S20  1  0.47056700  0.84397700  0.54217200  1
  S  S21  1  0.52943300  0.84397700  0.45782800  1
  S  S22  1  0.95093100  0.19467500  0.30290200  1
  S  S23  1  0.04906900  0.19467500  0.69709800  1
  S  S24  1  0.98470700  0.27669000  0.76829600  1
  S  S25  1  0.01529300  0.27669000  0.23170400  1
  S  S26  1  0.89627300  0.13431200  0.79127500  1
  S  S27  1  0.10372700  0.13431200  0.20872500  1
  S  S28  1  0.75477000  0.14045700  0.70613300  1
  S  S29  1  0.24523000  0.14045700  0.29386700  1
  S  S30  1  0.66923000  0.28012700  0.73440900  1
  S  S31  1  0.33077000  0.28012700  0.26559100  1
  S  S32  1  0.60226700  0.18899300  0.80147900  1
  S  S33  1  0.39773300  0.18899300  0.19852100  1
  S  S34  1  0.46884000  0.10332400  0.73205600  1
  S  S35  1  0.53116000  0.10332400  0.26794400  1
  S  S36  1  0.35624200  0.24499100  0.70669700  1
  S  S37  1  0.64375800  0.24499100  0.29330300  1
  S  S38  1  0.29647900  0.24175900  0.79048900  1
  S  S39  1  0.70352100  0.24175900  0.20951100  1
  S  S40  1  0.81813900  0.10274500  0.23700900  1
  S  S41  1  0.18186100  0.10274500  0.76299100  1
  S  S42  1  0.88876900  0.61780800  0.28209000  1
  S  S43  1  0.11123100  0.61780800  0.71791000  1
  S  S44  1  0.98786900  0.76605300  0.28051000  1
  S  S45  1  0.01213100  0.76605300  0.71949000  1
  S  S46  1  0.95123200  0.71724400  0.79925200  1
  S  S47  1  0.04876800  0.71724400  0.20074800  1
  S  S48  1  0.82544600  0.60001900  0.74792300  1
  S  S49  1  0.17455400  0.60001900  0.25207700  1
  S  S50  1  0.70139000  0.72194500  0.70068900  1
  S  S51  1  0.29861000  0.72194500  0.29931100  1
  S  S52  1  0.64092100  0.76158500  0.78187100  1
  S  S53  1  0.35907900  0.76158500  0.21812900  1
  S  S54  1  0.53919600  0.61338400  0.77815900  1
  S  S55  1  0.46080400  0.61338400  0.22184100  1
  S  S56  1  0.40010800  0.66589500  0.69887600  1
  S  S57  1  0.59989200  0.66589500  0.30112400  1
  S  S58  1  0.32713800  0.78283900  0.75175900  1
  S  S59  1  0.67286200  0.78283900  0.24824100  1
  S  S60  1  0.25096200  0.66047700  0.79950200  1
  S  S61  1  0.74903800  0.66047700  0.20049800  1
  S  S62  1  0.22288700  0.39582200  0.94721400  1
  S  S63  1  0.77711300  0.39582200  0.05278600  1
  S  S64  1  0.84215400  0.30980500  0.98327700  1
  S  S65  1  0.15784600  0.30980500  0.01672300  1
  S  S66  1  0.92924600  0.45115200  0.95753700  1
  S  S67  1  0.07075400  0.45115200  0.04246300  1
  S  S68  1  0.64374800  0.48502900  0.98507200  1
  S  S69  1  0.35625200  0.48502900  0.01492800  1
  S  S70  1  0.52994700  0.34521900  0.95806000  1
  S  S71  1  0.47005300  0.34521900  0.04194000  1
  S  S72  1  0.18622600  0.82508800  0.96937300  1
  S  S73  1  0.81377400  0.82508800  0.03062700  1
  S  S74  1  0.87507600  0.86842600  0.95022000  1
  S  S75  1  0.12492400  0.86842600  0.04978000  1
  S  S76  1  0.28688700  0.97303200  0.97060800  1
  S  S77  1  0.71311300  0.97303200  0.02939200  1
  S  S78  1  0.57402500  0.92432800  0.94875100  1
  S  S79  1  0.42597500  0.92432800  0.05124900  1
