# generated using pymatgen
data_Li10B14Cl2O25
_symmetry_space_group_name_H-M   'P 1'
_cell_length_a   8.65194079
_cell_length_b   8.65194079
_cell_length_c   8.65194079
_cell_angle_alpha   60.00000000
_cell_angle_beta   60.00000000
_cell_angle_gamma   60.00000000
_symmetry_Int_Tables_number   1
_chemical_formula_structural   Li10B14Cl2O25
_chemical_formula_sum   'Li10 B14 Cl2 O25'
_cell_volume   457.95796568
_cell_formula_units_Z   1
loop_
 _symmetry_equiv_pos_site_id
 _symmetry_equiv_pos_as_xyz
  1  'x, y, z'
loop_
 _atom_site_type_symbol
 _atom_site_label
 _atom_site_symmetry_multiplicity
 _atom_site_fract_x
 _atom_site_fract_y
 _atom_site_fract_z
 _atom_site_occupancy
  B  B0  1  0.60085100  0.19744700  0.60085100  1
  B  B1  1  0.60085100  0.60085100  0.19744700  1
  B  B2  1  0.60085100  0.60085100  0.60085100  1
  B  B3  1  0.19744700  0.60085100  0.60085100  1
  B  B4  1  0.75714100  0.08095300  0.08095300  1
  B  B5  1  0.08095300  0.08095300  0.08095300  1
  B  B6  1  0.08095300  0.08095300  0.75714100  1
  B  B7  1  0.08095300  0.75714100  0.08095300  1
  B  B8  1  0.25051100  0.25051100  0.74948900  1
  B  B9  1  0.74948900  0.25051100  0.25051100  1
  B  B10  1  0.74948900  0.25051100  0.74948900  1
  B  B11  1  0.25051100  0.74948900  0.25051100  1
  B  B12  1  0.25051100  0.74948900  0.74948900  1
  B  B13  1  0.74948900  0.74948900  0.25051100  1
  Cl  Cl14  1  0.25000000  0.25000000  0.25000000  1
  Cl  Cl15  1  0.75000000  0.75000000  0.75000000  1
  Li  Li16  1  0.40517500  0.86494167  0.86494167  1
  Li  Li17  1  0.86494167  0.86494167  0.86494167  1
  Li  Li18  1  0.86494167  0.86494167  0.40517500  1
  Li  Li19  1  0.86494167  0.40517500  0.86494167  1
  Li  Li20  1  0.04333000  0.04333000  0.45667000  1
  Li  Li21  1  0.45667000  0.04333000  0.04333000  1
  Li  Li22  1  0.45667000  0.04333000  0.45667000  1
  Li  Li23  1  0.04333000  0.45667000  0.04333000  1
  Li  Li24  1  0.04333000  0.45667000  0.45667000  1
  Li  Li25  1  0.45667000  0.45667000  0.04333000  1
  O  O26  1  0.93638600  0.70365000  0.25770000  1
  O  O27  1  0.10226400  0.70365000  0.93638600  1
  O  O28  1  0.25770000  0.70365000  0.10226400  1
  O  O29  1  0.93638600  0.10226400  0.70365000  1
  O  O30  1  0.93638600  0.25770000  0.10226400  1
  O  O31  1  0.25770000  0.93638600  0.70365000  1
  O  O32  1  0.70365000  0.25770000  0.93638600  1
  O  O33  1  0.70365000  0.10226400  0.25770000  1
  O  O34  1  0.10226400  0.93638600  0.25770000  1
  O  O35  1  0.25770000  0.10226400  0.93638600  1
  O  O36  1  0.10226400  0.25770000  0.70365000  1
  O  O37  1  0.70365000  0.93638600  0.10226400  1
  O  O38  1  0.60707400  0.19574500  0.75829000  1
  O  O39  1  0.43889100  0.19574500  0.60707400  1
  O  O40  1  0.75829000  0.19574500  0.43889100  1
  O  O41  1  0.60707400  0.43889100  0.19574500  1
  O  O42  1  0.60707400  0.75829000  0.43889100  1
  O  O43  1  0.75829000  0.60707400  0.19574500  1
  O  O44  1  0.19574500  0.75829000  0.60707400  1
  O  O45  1  0.19574500  0.43889100  0.75829000  1
  O  O46  1  0.43889100  0.60707400  0.75829000  1
  O  O47  1  0.75829000  0.43889100  0.60707400  1
  O  O48  1  0.43889100  0.75829000  0.19574500  1
  O  O49  1  0.19574500  0.60707400  0.43889100  1
  O  O50  1  0.00000000  0.00000000  0.00000000  1
