# generated using pymatgen
data_In(IO3)3
_symmetry_space_group_name_H-M   'P 1'
_cell_length_a   9.54630000
_cell_length_b   9.54630000
_cell_length_c   5.27450000
_cell_angle_alpha   90.00000000
_cell_angle_beta   90.00000000
_cell_angle_gamma   120.00000000
_symmetry_Int_Tables_number   1
_chemical_formula_structural   In(IO3)3
_chemical_formula_sum   'In2 I6 O18'
_cell_volume   416.27668263
_cell_formula_units_Z   2
loop_
 _symmetry_equiv_pos_site_id
 _symmetry_equiv_pos_as_xyz
  1  'x, y, z'
loop_
 _atom_site_type_symbol
 _atom_site_label
 _atom_site_symmetry_multiplicity
 _atom_site_fract_x
 _atom_site_fract_y
 _atom_site_fract_z
 _atom_site_occupancy
  In  In0  1  0.66666667  0.33333333  0.69519000  1.0
  In  In1  1  0.33333333  0.66666667  0.19519000  1.0
  I  I2  1  0.68494001  0.02062001  0.33087000  1.0
  I  I3  1  0.31505999  0.97937999  0.83087000  1.0
  I  I4  1  0.02062001  0.33568000  0.83087000  1.0
  I  I5  1  0.33568000  0.31505999  0.33087000  1.0
  I  I6  1  0.97937999  0.66432000  0.33087000  1.0
  I  I7  1  0.66432000  0.68494001  0.83087000  1.0
  O  O8  1  0.77160001  0.83090001  0.07060000  1.0
  O  O9  1  0.94070000  0.77160001  0.57060000  1.0
  O  O10  1  0.83090001  0.05930000  0.57060000  1.0
  O  O11  1  0.16909999  0.94070000  0.07060000  1.0
  O  O12  1  0.05930000  0.22839999  0.07060000  1.0
  O  O13  1  0.22839999  0.16909999  0.57060000  1.0
  O  O14  1  0.71480001  0.53350001  0.93410000  1.0
  O  O15  1  0.18130000  0.71480001  0.43410000  1.0
  O  O16  1  0.54000001  0.41930001  0.46560000  1.0
  O  O17  1  0.12070000  0.54000001  0.96560000  1.0
  O  O18  1  0.41930001  0.87930000  0.96560000  1.0
  O  O19  1  0.58069999  0.12070000  0.46560000  1.0
  O  O20  1  0.87930000  0.45999999  0.46560000  1.0
  O  O21  1  0.45999999  0.58069999  0.96560000  1.0
  O  O22  1  0.28519999  0.46649999  0.43410000  1.0
  O  O23  1  0.81870000  0.28519999  0.93410000  1.0
  O  O24  1  0.46649999  0.18130000  0.93410000  1.0
  O  O25  1  0.53350001  0.81870000  0.43410000  1.0
