# generated using pymatgen
data_Hf2N2O
_symmetry_space_group_name_H-M   'P 1'
_cell_length_a   8.66751122
_cell_length_b   8.66782437
_cell_length_c   8.67363208
_cell_angle_alpha   109.44747909
_cell_angle_beta   109.44137865
_cell_angle_gamma   109.44828616
_symmetry_Int_Tables_number   1
_chemical_formula_structural   Hf2N2O
_chemical_formula_sum   'Hf16 N16 O8'
_cell_volume   502.10328413
_cell_formula_units_Z   8
loop_
 _symmetry_equiv_pos_site_id
 _symmetry_equiv_pos_as_xyz
  1  'x, y, z'
loop_
 _atom_site_type_symbol
 _atom_site_label
 _atom_site_symmetry_multiplicity
 _atom_site_fract_x
 _atom_site_fract_y
 _atom_site_fract_z
 _atom_site_occupancy
  Hf  Hf0  1  0.74166223  0.78052987  0.02907482  1
  Hf  Hf1  1  0.51047088  0.00389554  0.00899112  1
  Hf  Hf2  1  0.02735881  0.24731195  0.27934508  1
  Hf  Hf3  1  0.46368564  0.74884944  0.21464155  1
  Hf  Hf4  1  0.21758587  0.46211335  0.75607107  1
  Hf  Hf5  1  0.71834032  0.96866276  0.74735725  1
  Hf  Hf6  1  0.00906884  0.01254598  0.51607387  1
  Hf  Hf7  1  0.49940279  0.49249847  0.48892829  1
  Hf  Hf8  1  0.99003122  0.48694648  0.99529157  1
  Hf  Hf9  1  0.74388897  0.27931488  0.52870413  1
  Hf  Hf10  1  0.24758497  0.71092961  0.46111320  1
  Hf  Hf11  1  0.78765194  0.53141744  0.24795165  1
  Hf  Hf12  1  0.29149737  0.04520774  0.25917609  1
  Hf  Hf13  1  0.53915924  0.25802200  0.79131820  1
  Hf  Hf14  1  0.96555914  0.75027848  0.70417257  1
  Hf  Hf15  1  0.25280853  0.22077942  0.96793124  1
  N  N16  1  0.46700746  0.72475991  0.94945112  1
  N  N17  1  0.51081398  0.74021933  0.46599531  1
  N  N18  1  0.95624097  0.23020128  0.48770560  1
  N  N19  1  0.23681611  0.46845428  0.01205966  1
  N  N20  1  0.76365620  0.53818055  0.98938211  1
  N  N21  1  0.53855057  0.03073689  0.26937924  1
  N  N22  1  0.05106321  0.77748942  0.51289873  1
  N  N23  1  0.25862983  0.26832291  0.22806445  1
  N  N24  1  0.96561344  0.00633049  0.73884819  1
  N  N25  1  0.77247340  0.22706846  0.76135911  1
  N  N26  1  0.48326727  0.26075504  0.53347717  1
  N  N27  1  0.99398962  0.45730851  0.22934808  1
  N  N28  1  0.27240746  0.23991899  0.72671168  1
  N  N29  1  0.77374356  0.04319777  0.03174969  1
  N  N30  1  0.53382574  0.26957470  0.04677774  1
  N  N31  1  0.72933868  0.49318401  0.45925329  1
  O  O32  1  0.27528801  0.51830162  0.54912613  1
  O  O33  1  0.72790076  0.76508360  0.27133997  1
  O  O34  1  0.22462958  0.94666026  0.96283970  1
  O  O35  1  0.01381533  0.55239583  0.77843242  1
  O  O36  1  0.22440178  0.77484817  0.23910171  1
  O  O37  1  0.03214503  0.98002235  0.26037823  1
  O  O38  1  0.73691691  0.72438033  0.77272475  1
  O  O39  1  0.45170634  0.96330390  0.72745722  1
