# generated using pymatgen
data_Hf2N2O
_symmetry_space_group_name_H-M   'P 1'
_cell_length_a   8.66459779
_cell_length_b   8.66479737
_cell_length_c   8.67088786
_cell_angle_alpha   109.55270528
_cell_angle_beta   109.44694754
_cell_angle_gamma   109.20742158
_symmetry_Int_Tables_number   1
_chemical_formula_structural   Hf2N2O
_chemical_formula_sum   'Hf16 N16 O8'
_cell_volume   502.39780546
_cell_formula_units_Z   8
loop_
 _symmetry_equiv_pos_site_id
 _symmetry_equiv_pos_as_xyz
  1  'x, y, z'
loop_
 _atom_site_type_symbol
 _atom_site_label
 _atom_site_symmetry_multiplicity
 _atom_site_fract_x
 _atom_site_fract_y
 _atom_site_fract_z
 _atom_site_occupancy
  Hf  Hf0  1  0.50881832  0.51136969  0.49899743  1
  Hf  Hf1  1  0.46391439  0.21204040  0.75668910  1
  Hf  Hf2  1  0.24962439  0.47044006  0.72025878  1
  Hf  Hf3  1  0.25610804  0.96898740  0.21077223  1
  Hf  Hf4  1  0.03550178  0.29464300  0.25059797  1
  Hf  Hf5  1  0.28533326  0.25256657  0.02721678  1
  Hf  Hf6  1  0.78449222  0.25171391  0.53333149  1
  Hf  Hf7  1  0.70860166  0.74876862  0.96671723  1
  Hf  Hf8  1  0.99405140  0.99198413  0.50400040  1
  Hf  Hf9  1  0.00182337  0.49151457  0.99919926  1
  Hf  Hf10  1  0.21324292  0.74434471  0.46915157  1
  Hf  Hf11  1  0.48936695  0.99948109  0.99727490  1
  Hf  Hf12  1  0.96358195  0.71125934  0.74451865  1
  Hf  Hf13  1  0.74894217  0.53431142  0.28427502  1
  Hf  Hf14  1  0.74985664  0.02580435  0.77953545  1
  Hf  Hf15  1  0.54351029  0.78701137  0.25036672  1
  N  N16  1  0.73848826  0.77173504  0.73360310  1
  N  N17  1  0.26966392  0.53904913  0.51084394  1
  N  N18  1  0.04343872  0.50658035  0.77277401  1
  N  N19  1  0.47016540  0.95772409  0.72473409  1
  N  N20  1  0.72399619  0.45293729  0.48641091  1
  N  N21  1  0.22961201  0.23950259  0.76705538  1
  N  N22  1  0.52955270  0.04400035  0.27309274  1
  N  N23  1  0.76596135  0.99456007  0.53869130  1
  N  N24  1  0.22555442  0.96792627  0.95828325  1
  N  N25  1  0.03119151  0.25858623  0.99005917  1
  N  N26  1  0.95545684  0.48817600  0.22471304  1
  N  N27  1  0.01769027  0.77667241  0.54982306  1
  N  N28  1  0.77776671  0.76645565  0.22862377  1
  N  N29  1  0.45808647  0.72700018  0.96220749  1
  N  N30  1  0.54762271  0.27303709  0.03184916  1
  N  N31  1  0.48108913  0.53647149  0.26174786  1
  O  O32  1  0.72842901  0.28286286  0.76467534  1
  O  O33  1  0.26344195  0.22551589  0.28004546  1
  O  O34  1  0.52048232  0.46397345  0.74129200  1
  O  O35  1  0.77667486  0.03478801  0.05465321  1
  O  O36  1  0.96694922  0.73590936  0.01402516  1
  O  O37  1  0.97977189  0.22212541  0.44522931  1
  O  O38  1  0.26609501  0.72841757  0.23354674  1
  O  O39  1  0.23605538  0.00975060  0.45912153  1
