# generated using pymatgen
data_BaGaF5
_symmetry_space_group_name_H-M   'P 1'
_cell_length_a   4.97800000
_cell_length_b   5.66000000
_cell_length_c   13.93000000
_cell_angle_alpha   90.00000000
_cell_angle_beta   90.00000000
_cell_angle_gamma   90.00000000
_symmetry_Int_Tables_number   1
_chemical_formula_structural   BaGaF5
_chemical_formula_sum   'Ba4 Ga4 F20'
_cell_volume   392.48443640
_cell_formula_units_Z   4
loop_
 _symmetry_equiv_pos_site_id
 _symmetry_equiv_pos_as_xyz
  1  'x, y, z'
loop_
 _atom_site_type_symbol
 _atom_site_label
 _atom_site_symmetry_multiplicity
 _atom_site_fract_x
 _atom_site_fract_y
 _atom_site_fract_z
 _atom_site_occupancy
  Ba  Ba0  1  0.72810000  0.65800000  0.65750000  1.0
  Ba  Ba1  1  0.22810000  0.84200000  0.34250000  1.0
  Ba  Ba2  1  0.27190000  0.15800000  0.84250000  1.0
  Ba  Ba3  1  0.77190000  0.34200000  0.15750000  1.0
  Ga  Ga4  1  0.31470000  0.14590000  0.58560000  1.0
  Ga  Ga5  1  0.81470000  0.35410000  0.41440000  1.0
  Ga  Ga6  1  0.68530000  0.64590000  0.91440000  1.0
  Ga  Ga7  1  0.18530000  0.85410000  0.08560000  1.0
  F  F8  1  0.95200000  0.60720000  0.48210000  1.0
  F  F9  1  0.45200000  0.89280000  0.51790000  1.0
  F  F10  1  0.04800000  0.10720000  0.01790000  1.0
  F  F11  1  0.54800000  0.39280000  0.98210000  1.0
  F  F12  1  0.64930000  0.55920000  0.32920000  1.0
  F  F13  1  0.14930000  0.94080000  0.67080000  1.0
  F  F14  1  0.35070000  0.05920000  0.17080000  1.0
  F  F15  1  0.85070000  0.44080000  0.82920000  1.0
  F  F16  1  0.19100000  0.40700000  0.65120000  1.0
  F  F17  1  0.69100000  0.09300000  0.34880000  1.0
  F  F18  1  0.80900000  0.90700000  0.84880000  1.0
  F  F19  1  0.30900000  0.59300000  0.15120000  1.0
  F  F20  1  0.60620000  0.14830000  0.67140000  1.0
  F  F21  1  0.10620000  0.35170000  0.32860000  1.0
  F  F22  1  0.39380000  0.64830000  0.82860000  1.0
  F  F23  1  0.89380000  0.85170000  0.17140000  1.0
  F  F24  1  0.51910000  0.35720000  0.50190000  1.0
  F  F25  1  0.01910000  0.14280000  0.49810000  1.0
  F  F26  1  0.48090000  0.85720000  0.99810000  1.0
  F  F27  1  0.98090000  0.64280000  0.00190000  1.0
