# generated using pymatgen
data_Hf2N2O
_symmetry_space_group_name_H-M   'P 1'
_cell_length_a   8.66176056
_cell_length_b   8.67083469
_cell_length_c   8.67386627
_cell_angle_alpha   109.52708918
_cell_angle_beta   109.40315574
_cell_angle_gamma   109.31256612
_symmetry_Int_Tables_number   1
_chemical_formula_structural   Hf2N2O
_chemical_formula_sum   'Hf16 N16 O8'
_cell_volume   502.53824085
_cell_formula_units_Z   8
loop_
 _symmetry_equiv_pos_site_id
 _symmetry_equiv_pos_as_xyz
  1  'x, y, z'
loop_
 _atom_site_type_symbol
 _atom_site_label
 _atom_site_symmetry_multiplicity
 _atom_site_fract_x
 _atom_site_fract_y
 _atom_site_fract_z
 _atom_site_occupancy
  Hf  Hf0  1  0.01282105  0.01031056  0.50222943  1
  Hf  Hf1  1  0.46516778  0.70858436  0.25039149  1
  Hf  Hf2  1  0.74994708  0.03670818  0.78263643  1
  Hf  Hf3  1  0.75251354  0.52834142  0.27976113  1
  Hf  Hf4  1  0.04354891  0.78557259  0.74823046  1
  Hf  Hf5  1  0.28089842  0.74381401  0.53685420  1
  Hf  Hf6  1  0.78332478  0.74125350  0.03179709  1
  Hf  Hf7  1  0.49000029  0.50018939  0.49769667  1
  Hf  Hf8  1  0.99410805  0.48079864  0.99203375  1
  Hf  Hf9  1  0.71642640  0.25053244  0.46629177  1
  Hf  Hf10  1  0.49338557  0.00336066  0.00206489  1
  Hf  Hf11  1  0.22450414  0.25894560  0.97313692  1
  Hf  Hf12  1  0.96630810  0.21808334  0.25503026  1
  Hf  Hf13  1  0.24843895  0.97547517  0.21999301  1
  Hf  Hf14  1  0.24865352  0.46358613  0.71690229  1
  Hf  Hf15  1  0.53522740  0.29462473  0.74910958  1
  N  N16  1  0.03829254  0.00441524  0.26578372  1
  N  N17  1  0.03060432  0.75994184  0.48712278  1
  N  N18  1  0.47418213  0.45868713  0.22958413  1
  N  N19  1  0.73371241  0.26948729  0.22737594  1
  N  N20  1  0.54465709  0.77660523  0.53412403  1
  N  N21  1  0.96490262  0.23604488  0.51366455  1
  N  N22  1  0.76673614  0.49659133  0.03817206  1
  N  N23  1  0.53721958  0.54937368  0.77264085  1
  N  N24  1  0.22466816  0.46667207  0.45045343  1
  N  N25  1  0.00889233  0.26692741  0.04181985  1
  N  N26  1  0.45548115  0.22642743  0.46183464  1
  N  N27  1  0.26887182  0.04130220  0.01157729  1
  N  N28  1  0.26509803  0.73220969  0.77415127  1
  N  N29  1  0.77111655  0.25755247  0.72774536  1
  N  N30  1  0.27368899  0.22063247  0.73786969  1
  N  N31  1  0.23971013  0.51675795  0.97017351  1
  O  O32  1  0.72214086  0.77844323  0.25737785  1
  O  O33  1  0.51389156  0.96209200  0.23612417  1
  O  O34  1  0.95066004  0.98490995  0.72414330  1
  O  O35  1  0.23026927  0.74707454  0.27249624  1
  O  O36  1  0.98359220  0.72254810  0.94751340  1
  O  O37  1  0.72113354  0.95209104  0.98627645  1
  O  O38  1  0.77954799  0.53470517  0.55567179  1
  O  O39  1  0.49565857  0.03832496  0.77214135  1
