# generated using pymatgen
data_BaZnSnS4
_symmetry_space_group_name_H-M   'P 1'
_cell_length_a   12.61563225
_cell_length_b   12.61563225
_cell_length_c   12.91352939
_cell_angle_alpha   104.69545433
_cell_angle_beta   104.69545433
_cell_angle_gamma   118.72832538
_symmetry_Int_Tables_number   1
_chemical_formula_structural   BaZnSnS4
_chemical_formula_sum   'Ba8 Zn8 Sn8 S32'
_cell_volume   1563.05983804
_cell_formula_units_Z   8
loop_
 _symmetry_equiv_pos_site_id
 _symmetry_equiv_pos_as_xyz
  1  'x, y, z'
loop_
 _atom_site_type_symbol
 _atom_site_label
 _atom_site_symmetry_multiplicity
 _atom_site_fract_x
 _atom_site_fract_y
 _atom_site_fract_z
 _atom_site_occupancy
  Ba  Ba0  1  0.75082300  0.24929900  0.00325500  1
  Ba  Ba1  1  0.24604400  0.74756800  0.99674500  1
  Ba  Ba2  1  0.49929900  0.50082300  0.50325500  1
  Ba  Ba3  1  0.99756800  0.99604400  0.49674500  1
  Ba  Ba4  1  0.24976700  0.24976700  -0.00000000  1
  Ba  Ba5  1  0.49976700  0.99976700  0.50000000  1
  Ba  Ba6  1  0.74732200  0.74732200  0.00000000  1
  Ba  Ba7  1  0.99732200  0.49732200  0.50000000  1
  S  S8  1  0.79102000  0.54066900  0.08872800  1
  S  S9  1  0.45194100  0.70229200  0.91127200  1
  S  S10  1  0.79066900  0.54102000  0.58872800  1
  S  S11  1  0.95229200  0.20194100  0.41127200  1
  S  S12  1  0.29366500  0.04329700  0.58924100  1
  S  S13  1  0.45405600  0.70442400  0.41075900  1
  S  S14  1  0.29329700  0.04366500  0.08924100  1
  S  S15  1  0.95442400  0.20405600  0.91075900  1
  S  S16  1  0.53327400  0.43878500  0.25194400  1
  S  S17  1  0.18684100  0.28133000  0.74805600  1
  S  S18  1  0.68878500  0.28327400  0.75194400  1
  S  S19  1  0.53133000  0.93684100  0.24805600  1
  S  S20  1  0.03655900  0.47367700  0.25159700  1
  S  S21  1  0.22208000  0.78496200  0.74840300  1
  S  S22  1  0.72367700  0.78655900  0.75159700  1
  S  S23  1  0.03496200  0.97208000  0.24840300  1
  S  S24  1  0.21917900  0.31810800  0.25156100  1
  S  S25  1  0.06654700  0.96761800  0.74843900  1
  S  S26  1  0.56810800  0.96917900  0.75156100  1
  S  S27  1  0.21761800  0.81654700  0.24843900  1
  S  S28  1  0.71582600  0.26880400  0.25181700  1
  S  S29  1  0.01698700  0.46400900  0.74818300  1
  S  S30  1  0.51880400  0.46582600  0.75181700  1
  S  S31  1  0.71400900  0.76698700  0.24818300  1
  S  S32  1  0.29005700  0.54176600  0.08848900  1
  S  S33  1  0.45327700  0.20156800  0.91151100  1
  S  S34  1  0.79176600  0.04005700  0.58848900  1
  S  S35  1  0.45156800  0.20327700  0.41151100  1
  S  S36  1  0.95440400  0.70374600  0.41184000  1
  S  S37  1  0.29190600  0.54256400  0.58816000  1
  S  S38  1  0.95374600  0.70440400  0.91184000  1
  S  S39  1  0.79256400  0.04190600  0.08816000  1
  Sn  Sn40  1  0.01405000  0.15498800  0.25016800  1
  Sn  Sn41  1  0.51163000  0.23559300  0.25146700  1
  Sn  Sn42  1  0.51016300  0.73412600  0.24853300  1
  Sn  Sn43  1  0.48559300  0.26163000  0.75146700  1
  Sn  Sn44  1  0.90482000  0.76388200  0.74983200  1
  Sn  Sn45  1  0.01388200  0.65482000  0.24983200  1
  Sn  Sn46  1  0.40498800  0.76405000  0.75016800  1
  Sn  Sn47  1  0.98412600  0.26016300  0.74853300  1
  Zn  Zn48  1  0.73316000  0.58723900  0.25052000  1
  Zn  Zn49  1  0.73264000  0.08671900  0.24948000  1
  Zn  Zn50  1  0.83723900  0.48316000  0.75052000  1
  Zn  Zn51  1  0.33671900  0.48264000  0.74948000  1
  Zn  Zn52  1  0.23627500  0.51557500  0.25053200  1
  Zn  Zn53  1  0.26504300  0.98574300  0.74946800  1
  Zn  Zn54  1  0.76557500  0.98627500  0.75053200  1
  Zn  Zn55  1  0.23574300  0.01504300  0.24946800  1
