# generated using pymatgen
data_Cs3NbO4
_symmetry_space_group_name_H-M   'P 1'
_cell_length_a   6.43022222
_cell_length_b   6.43022222
_cell_length_c   6.62235003
_cell_angle_alpha   97.11533611
_cell_angle_beta   116.75928598
_cell_angle_gamma   114.12545604
_symmetry_Int_Tables_number   1
_chemical_formula_structural   Cs3NbO4
_chemical_formula_sum   'Cs3 Nb1 O4'
_cell_volume   206.59886245
_cell_formula_units_Z   1
loop_
 _symmetry_equiv_pos_site_id
 _symmetry_equiv_pos_as_xyz
  1  'x, y, z'
loop_
 _atom_site_type_symbol
 _atom_site_label
 _atom_site_symmetry_multiplicity
 _atom_site_fract_x
 _atom_site_fract_y
 _atom_site_fract_z
 _atom_site_occupancy
  Cs  Cs0  1  0.52667442  0.29235933  0.74467539  1
  Cs  Cs1  1  0.06575926  0.06575926  0.00000000  1
  Cs  Cs2  1  0.54768394  0.78199903  0.25532461  1
  Nb  Nb3  1  0.00326457  0.50326457  0.50000000  1
  O  O4  1  0.24291752  0.48815369  0.42000344  1
  O  O5  1  0.06815025  0.82291408  0.57999656  1
  O  O6  1  0.05725132  0.40504113  0.76574440  1
  O  O7  1  0.63929673  0.29150692  0.23425560  1
