# generated using pymatgen
data_SBr2
_symmetry_space_group_name_H-M   'P 1'
_cell_length_a   5.76249160
_cell_length_b   5.98687431
_cell_length_c   7.76551068
_cell_angle_alpha   75.58508060
_cell_angle_beta   68.23078345
_cell_angle_gamma   61.30258878
_symmetry_Int_Tables_number   1
_chemical_formula_structural   SBr2
_chemical_formula_sum   'S2 Br4'
_cell_volume   217.41151853
_cell_formula_units_Z   2
loop_
 _symmetry_equiv_pos_site_id
 _symmetry_equiv_pos_as_xyz
  1  'x, y, z'
loop_
 _atom_site_type_symbol
 _atom_site_label
 _atom_site_symmetry_multiplicity
 _atom_site_fract_x
 _atom_site_fract_y
 _atom_site_fract_z
 _atom_site_occupancy
  S  S0  1  0.94967214  0.70570044  0.37109989  1
  S  S1  1  0.84177054  0.04470468  0.24683756  1
  Br  Br2  1  0.56849002  0.67596192  0.59228023  1
  Br  Br3  1  0.65202056  0.07298393  0.02604820  1
  Br  Br4  1  0.03263902  0.57748675  0.87341695  1
  Br  Br5  1  0.29971773  0.17171827  0.74471717  1
