# generated using pymatgen
data_BeH4NF3
_symmetry_space_group_name_H-M   'P 1'
_cell_length_a   5.80384565
_cell_length_b   4.50603734
_cell_length_c   14.57271689
_cell_angle_alpha   90.00000000
_cell_angle_beta   113.34438539
_cell_angle_gamma   90.00000000
_symmetry_Int_Tables_number   1
_chemical_formula_structural   BeH4NF3
_chemical_formula_sum   'Be4 H16 N4 F12'
_cell_volume   349.91288024
_cell_formula_units_Z   4
loop_
 _symmetry_equiv_pos_site_id
 _symmetry_equiv_pos_as_xyz
  1  'x, y, z'
loop_
 _atom_site_type_symbol
 _atom_site_label
 _atom_site_symmetry_multiplicity
 _atom_site_fract_x
 _atom_site_fract_y
 _atom_site_fract_z
 _atom_site_occupancy
  Be  Be0  1  0.63328460  0.52788131  0.31240458  1
  Be  Be1  1  0.63328460  0.47211869  0.81240458  1
  Be  Be2  1  0.36030456  0.02782540  0.18960342  1
  Be  Be3  1  0.36030456  0.97217460  0.68960342  1
  H  H4  1  0.34293316  0.12274387  0.38365548  1
  H  H5  1  0.34293316  0.87725613  0.88365548  1
  H  H6  1  0.07366800  0.29077006  0.37153774  1
  H  H7  1  0.07366800  0.70922994  0.87153774  1
  H  H8  1  0.08308320  0.91049477  0.36840791  1
  H  H9  1  0.08308320  0.08950523  0.86840791  1
  H  H10  1  0.24609540  0.09840587  0.47826981  1
  H  H11  1  0.24609540  0.90159413  0.97826981  1
  H  H12  1  0.65205951  0.62361338  0.11871297  1
  H  H13  1  0.65205951  0.37638662  0.61871297  1
  H  H14  1  0.91212680  0.41124796  0.13420982  1
  H  H15  1  0.91212680  0.58875204  0.63420982  1
  H  H16  1  0.92127909  0.79167773  0.13094702  1
  H  H17  1  0.92127909  0.20832227  0.63094702  1
  H  H18  1  0.74934002  0.59876676  0.02427790  1
  H  H19  1  0.74934002  0.40123324  0.52427790  1
  N  N20  1  0.18523394  0.10230467  0.40004006  1
  N  N21  1  0.18523394  0.89769533  0.90004006  1
  N  N22  1  0.80995177  0.60300361  0.10246810  1
  N  N23  1  0.80995177  0.39699639  0.60246810  1
  F  F24  1  0.46681685  0.81657954  0.28449764  1
  F  F25  1  0.46681685  0.18342046  0.78449764  1
  F  F26  1  0.61371828  0.37512549  0.40257395  1
  F  F27  1  0.61371828  0.62487451  0.90257395  1
  F  F28  1  0.90752255  0.60173725  0.33027104  1
  F  F29  1  0.90752255  0.39826275  0.83027104  1
  F  F30  1  0.52701777  0.31646372  0.21762896  1
  F  F31  1  0.52701777  0.68353628  0.71762896  1
  F  F32  1  0.38048449  0.87457037  0.09970902  1
  F  F33  1  0.38048449  0.12542963  0.59970902  1
  F  F34  1  0.08648398  0.10220408  0.17198557  1
  F  F35  1  0.08648398  0.89779592  0.67198557  1
