# generated using pymatgen
data_LiClO3
_symmetry_space_group_name_H-M   'P 1'
_cell_length_a   5.23583648
_cell_length_b   5.02831794
_cell_length_c   5.71502662
_cell_angle_alpha   90.00000000
_cell_angle_beta   96.77983652
_cell_angle_gamma   90.00000000
_symmetry_Int_Tables_number   1
_chemical_formula_structural   LiClO3
_chemical_formula_sum   'Li2 Cl2 O6'
_cell_volume   149.40991644
_cell_formula_units_Z   2
loop_
 _symmetry_equiv_pos_site_id
 _symmetry_equiv_pos_as_xyz
  1  'x, y, z'
loop_
 _atom_site_type_symbol
 _atom_site_label
 _atom_site_symmetry_multiplicity
 _atom_site_fract_x
 _atom_site_fract_y
 _atom_site_fract_z
 _atom_site_occupancy
  Li  Li0  1  0.19345595  0.18458840  0.99836630  1
  Li  Li1  1  0.80654405  0.68458840  0.00163370  1
  Cl  Cl2  1  0.25143152  0.67937244  0.68981257  1
  Cl  Cl3  1  0.74856848  0.17937244  0.31018743  1
  O  O4  1  0.19960220  0.96717367  0.71707737  1
  O  O5  1  0.88495565  0.04166595  0.12168966  1
  O  O6  1  0.80039780  0.46717367  0.28292263  1
  O  O7  1  0.47087876  0.12719954  0.24674782  1
  O  O8  1  0.11504435  0.54166595  0.87831034  1
  O  O9  1  0.52912124  0.62719954  0.75325218  1
