# generated using pymatgen
data_As2CO5
_symmetry_space_group_name_H-M   'P 1'
_cell_length_a   4.58535799
_cell_length_b   4.97814788
_cell_length_c   5.74031189
_cell_angle_alpha   92.51141994
_cell_angle_beta   100.54920999
_cell_angle_gamma   112.86427873
_symmetry_Int_Tables_number   1
_chemical_formula_structural   As2CO5
_chemical_formula_sum   'As2 C1 O5'
_cell_volume   117.73600169
_cell_formula_units_Z   1
loop_
 _symmetry_equiv_pos_site_id
 _symmetry_equiv_pos_as_xyz
  1  'x, y, z'
loop_
 _atom_site_type_symbol
 _atom_site_label
 _atom_site_symmetry_multiplicity
 _atom_site_fract_x
 _atom_site_fract_y
 _atom_site_fract_z
 _atom_site_occupancy
  As  As0  1  0.01783585  0.46503778  0.36722149  1
  As  As1  1  0.62327053  0.98289062  0.66650317  1
  C  C2  1  0.54390560  0.40088536  0.97110304  1
  O  O3  1  0.33882004  0.45451140  0.83341424  1
  O  O4  1  0.58768624  0.15084240  0.95415534  1
  O  O5  1  0.19942631  0.83678600  0.51743957  1
  O  O6  1  0.74014487  0.59287672  0.15732559  1
  O  O7  1  0.70162556  0.31775273  0.52908956  1
