# generated using pymatgen
data_RbBe2F5
_symmetry_space_group_name_H-M   'P 1'
_cell_length_a   4.61217489
_cell_length_b   4.64393149
_cell_length_c   6.12000000
_cell_angle_alpha   88.97417028
_cell_angle_beta   89.30270767
_cell_angle_gamma   60.88640635
_symmetry_Int_Tables_number   1
_chemical_formula_structural   RbBe2F5
_chemical_formula_sum   'Rb1 Be2 F5'
_cell_volume   114.50141260
_cell_formula_units_Z   1
loop_
 _symmetry_equiv_pos_site_id
 _symmetry_equiv_pos_as_xyz
  1  'x, y, z'
loop_
 _atom_site_type_symbol
 _atom_site_label
 _atom_site_symmetry_multiplicity
 _atom_site_fract_x
 _atom_site_fract_y
 _atom_site_fract_z
 _atom_site_occupancy
  Rb  Rb0  1  0.00000000  0.00000000  0.00000000  1.0
  Be  Be1  1  0.69500000  0.60500000  0.58700000  1.0
  Be  Be2  1  0.36000000  0.26000000  0.43700000  1.0
  F  F3  1  0.66100000  0.67300000  0.82500000  1.0
  F  F4  1  0.47000000  0.48000000  0.53000000  1.0
  F  F5  1  0.03400000  0.36600000  0.53300000  1.0
  F  F6  1  0.58400000  0.91600000  0.47500000  1.0
  F  F7  1  0.32300000  0.31500000  0.20000000  1.0
