# generated using pymatgen
data_LiBrO3
_symmetry_space_group_name_H-M   'P 1'
_cell_length_a   5.42411466
_cell_length_b   5.10734747
_cell_length_c   5.65484682
_cell_angle_alpha   90.00000000
_cell_angle_beta   97.70085691
_cell_angle_gamma   90.00000000
_symmetry_Int_Tables_number   1
_chemical_formula_structural   LiBrO3
_chemical_formula_sum   'Li2 Br2 O6'
_cell_volume   155.24246344
_cell_formula_units_Z   2
loop_
 _symmetry_equiv_pos_site_id
 _symmetry_equiv_pos_as_xyz
  1  'x, y, z'
loop_
 _atom_site_type_symbol
 _atom_site_label
 _atom_site_symmetry_multiplicity
 _atom_site_fract_x
 _atom_site_fract_y
 _atom_site_fract_z
 _atom_site_occupancy
  Li  Li0  1  0.18492643  0.17856189  0.99870860  1
  Li  Li1  1  0.81507357  0.67856189  0.00129140  1
  Br  Br2  1  0.24717833  0.67518995  0.66128882  1
  Br  Br3  1  0.75282167  0.17518995  0.33871118  1
  O  O4  1  0.18246610  0.99029023  0.69947718  1
  O  O5  1  0.89457200  0.02665887  0.12561361  1
  O  O6  1  0.81753390  0.49029023  0.30052282  1
  O  O7  1  0.45139349  0.12929906  0.25457381  1
  O  O8  1  0.10542800  0.52665887  0.87438639  1
  O  O9  1  0.54860651  0.62929906  0.74542619  1
