# generated using pymatgen
data_SrTe2Pb
_symmetry_space_group_name_H-M   'P 1'
_cell_length_a   4.61166260
_cell_length_b   4.61166260
_cell_length_c   6.53413160
_cell_angle_alpha   90.00000000
_cell_angle_beta   90.00000000
_cell_angle_gamma   90.00555110
_symmetry_Int_Tables_number   1
_chemical_formula_structural   SrTe2Pb
_chemical_formula_sum   'Sr1 Te2 Pb1'
_cell_volume   138.96419857
_cell_formula_units_Z   1
loop_
 _symmetry_equiv_pos_site_id
 _symmetry_equiv_pos_as_xyz
  1  'x, y, z'
loop_
 _atom_site_type_symbol
 _atom_site_label
 _atom_site_symmetry_multiplicity
 _atom_site_fract_x
 _atom_site_fract_y
 _atom_site_fract_z
 _atom_site_occupancy
  Pb  Pb0  1  0.62480918  0.37519082  1.00000000  1
  Sr  Sr1  1  0.12292151  0.87707849  0.50000000  1
  Te  Te2  1  0.12375105  0.87624895  1.00000000  1
  Te  Te3  1  0.62290726  0.37709274  0.50000000  1
