# generated using pymatgen
data_I2Br
_symmetry_space_group_name_H-M   'P 1'
_cell_length_a   4.41666219
_cell_length_b   4.41666219
_cell_length_c   13.53165022
_cell_angle_alpha   86.06944597
_cell_angle_beta   86.06944597
_cell_angle_gamma   63.77247659
_symmetry_Int_Tables_number   1
_chemical_formula_structural   I2Br
_chemical_formula_sum   'I4 Br2'
_cell_volume   236.01200520
_cell_formula_units_Z   2
loop_
 _symmetry_equiv_pos_site_id
 _symmetry_equiv_pos_as_xyz
  1  'x, y, z'
loop_
 _atom_site_type_symbol
 _atom_site_label
 _atom_site_symmetry_multiplicity
 _atom_site_fract_x
 _atom_site_fract_y
 _atom_site_fract_z
 _atom_site_occupancy
  Br  Br0  1  0.60022713  0.76674243  0.66291243  1
  Br  Br1  1  0.23325757  0.39977287  0.33708757  1
  I  I2  1  0.16869559  0.97265827  0.82891011  1
  I  I3  1  0.38011407  0.61988593  0.50000000  1
  I  I4  1  0.02734173  0.83130441  0.17108989  1
  I  I5  1  0.73949990  0.26050010  0.00000000  1
