# generated using pymatgen
data_Li2GePbSe4
_symmetry_space_group_name_H-M   'P 1'
_cell_length_a   6.24793909
_cell_length_b   6.24835871
_cell_length_c   6.24835871
_cell_angle_alpha   101.59172545
_cell_angle_beta   113.54580644
_cell_angle_gamma   113.54580644
_symmetry_Int_Tables_number   1
_chemical_formula_structural   Li2GePbSe4
_chemical_formula_sum   'Li2 Ge1 Pb1 Se4'
_cell_volume   185.18265287
_cell_formula_units_Z   1
loop_
 _symmetry_equiv_pos_site_id
 _symmetry_equiv_pos_as_xyz
  1  'x, y, z'
loop_
 _atom_site_type_symbol
 _atom_site_label
 _atom_site_symmetry_multiplicity
 _atom_site_fract_x
 _atom_site_fract_y
 _atom_site_fract_z
 _atom_site_occupancy
  Ge  Ge0  1  0.00084220  0.50048234  0.50048234  1
  Li  Li1  1  0.50006031  0.75004026  0.25010598  1
  Li  Li2  1  0.50006031  0.25010598  0.75004026  1
  Pb  Pb3  1  0.99636406  0.99782053  0.99782053  1
  Se  Se4  1  0.40356513  0.87136332  0.87136332  1
  Se  Se5  1  0.00013638  0.53136473  0.12914482  1
  Se  Se6  1  0.00013638  0.12914482  0.53136473  1
  Se  Se7  1  0.59906723  0.46979502  0.46979502  1
