# generated using pymatgen
data_Cd(PH)2
_symmetry_space_group_name_H-M   'P 1'
_cell_length_a   4.33030180
_cell_length_b   4.33098536
_cell_length_c   5.53166024
_cell_angle_alpha   112.10239356
_cell_angle_beta   112.13099898
_cell_angle_gamma   90.60628990
_symmetry_Int_Tables_number   1
_chemical_formula_structural   Cd(PH)2
_chemical_formula_sum   'Cd1 P2 H2'
_cell_volume   87.62430450
_cell_formula_units_Z   1
loop_
 _symmetry_equiv_pos_site_id
 _symmetry_equiv_pos_as_xyz
  1  'x, y, z'
loop_
 _atom_site_type_symbol
 _atom_site_label
 _atom_site_symmetry_multiplicity
 _atom_site_fract_x
 _atom_site_fract_y
 _atom_site_fract_z
 _atom_site_occupancy
  Cd  Cd0  1  0.12381769  0.50122878  0.06294861  1
  P  P1  1  0.88446041  0.87639278  0.79056204  1
  P  P2  1  0.74886703  0.74047477  0.33549617  1
  H  H3  1  0.74396289  0.07329199  0.33722634  1
  H  H4  1  0.55147296  0.88142769  0.78854084  1
