# generated using pymatgen
data_Rb2BaCl4
_symmetry_space_group_name_H-M   'P 1'
_cell_length_a   8.20094401
_cell_length_b   8.20094401
_cell_length_c   8.20094401
_cell_angle_alpha   108.89994625
_cell_angle_beta   109.75761080
_cell_angle_gamma   109.75761080
_symmetry_Int_Tables_number   1
_chemical_formula_structural   Rb2BaCl4
_chemical_formula_sum   'Rb4 Ba2 Cl8'
_cell_volume   424.55827157
_cell_formula_units_Z   2
loop_
 _symmetry_equiv_pos_site_id
 _symmetry_equiv_pos_as_xyz
  1  'x, y, z'
loop_
 _atom_site_type_symbol
 _atom_site_label
 _atom_site_symmetry_multiplicity
 _atom_site_fract_x
 _atom_site_fract_y
 _atom_site_fract_z
 _atom_site_occupancy
  Ba  Ba0  1  0.00000000  0.00000000  0.00000000  1
  Ba  Ba1  1  0.50000000  0.75000000  0.25000000  1
  Cl  Cl2  1  0.89080081  0.78129952  0.53262928  1
  Cl  Cl3  1  0.10919919  0.64182847  0.89049871  1
  Cl  Cl4  1  0.74867024  0.10817153  0.71737072  1
  Cl  Cl5  1  0.25132976  0.96870048  0.35950129  1
  Cl  Cl6  1  0.60919919  0.64049871  0.89182847  1
  Cl  Cl7  1  0.39080081  0.28262928  0.03129952  1
  Cl  Cl8  1  0.75132976  0.10950129  0.21870048  1
  Cl  Cl9  1  0.24867024  0.46737072  0.35817153  1
  Rb  Rb10  1  0.63653829  0.37500000  0.51153829  1
  Rb  Rb11  1  0.36346171  0.87500000  0.73846171  1
  Rb  Rb12  1  0.13653829  0.26153829  0.62500000  1
  Rb  Rb13  1  0.86346171  0.48846171  0.12500000  1
