# generated using pymatgen
data_Na2ZnGeS4
_symmetry_space_group_name_H-M   'P 1'
_cell_length_a   6.28778518
_cell_length_b   6.28778518
_cell_length_c   6.28778518
_cell_angle_alpha   91.51485749
_cell_angle_beta   119.12928471
_cell_angle_gamma   119.12928471
_symmetry_Int_Tables_number   1
_chemical_formula_structural   Na2ZnGeS4
_chemical_formula_sum   'Na2 Zn1 Ge1 S4'
_cell_volume   178.02961501
_cell_formula_units_Z   1
loop_
 _symmetry_equiv_pos_site_id
 _symmetry_equiv_pos_as_xyz
  1  'x, y, z'
loop_
 _atom_site_type_symbol
 _atom_site_label
 _atom_site_symmetry_multiplicity
 _atom_site_fract_x
 _atom_site_fract_y
 _atom_site_fract_z
 _atom_site_occupancy
  Ge  Ge0  1  1.00000000  0.50000000  0.50000000  1
  Na  Na1  1  0.50000000  0.75000000  0.25000000  1
  Na  Na2  1  0.00000000  0.00000000  0.00000000  1
  S  S3  1  0.57951390  0.39445283  0.44485879  1
  S  S4  1  0.05040596  0.18506107  0.60554717  1
  S  S5  1  0.94959404  0.55514121  0.13465511  1
  S  S6  1  0.42048610  0.86534489  0.81493893  1
  Zn  Zn7  1  0.50000000  0.25000000  0.75000000  1
