# generated using pymatgen
data_Zn3PI3
_symmetry_space_group_name_H-M   'P 1'
_cell_length_a   6.82654006
_cell_length_b   4.09668639
_cell_length_c   7.22162121
_cell_angle_alpha   90.00000000
_cell_angle_beta   90.02545134
_cell_angle_gamma   90.00000000
_symmetry_Int_Tables_number   1
_chemical_formula_structural   Zn3PI3
_chemical_formula_sum   'Zn3 P1 I3'
_cell_volume   201.96123822
_cell_formula_units_Z   1
loop_
 _symmetry_equiv_pos_site_id
 _symmetry_equiv_pos_as_xyz
  1  'x, y, z'
loop_
 _atom_site_type_symbol
 _atom_site_label
 _atom_site_symmetry_multiplicity
 _atom_site_fract_x
 _atom_site_fract_y
 _atom_site_fract_z
 _atom_site_occupancy
  Zn  Zn0  1  0.61076568  0.50000000  0.14893942  1
  Zn  Zn1  1  0.03973281  0.00000000  0.29102747  1
  Zn  Zn2  1  0.06934422  0.50000000  0.88394175  1
  P  P3  1  0.94486853  0.50000000  0.17729978  1
  I  I4  1  0.93859595  0.00000000  0.66999946  1
  I  I5  1  0.44237416  0.00000000  0.33825162  1
  I  I6  1  0.44631766  0.50000000  0.82392785  1
