# generated using pymatgen
data_TlZnAsO4
_symmetry_space_group_name_H-M   'P 1'
_cell_length_a   8.92100000
_cell_length_b   5.63100000
_cell_length_c   8.95800000
_cell_angle_alpha   90.00000000
_cell_angle_beta   91.03000000
_cell_angle_gamma   90.00000000
_symmetry_Int_Tables_number   1
_chemical_formula_structural   TlZnAsO4
_chemical_formula_sum   'Tl4 Zn4 As4 O16'
_cell_volume   449.92481408
_cell_formula_units_Z   4
loop_
 _symmetry_equiv_pos_site_id
 _symmetry_equiv_pos_as_xyz
  1  'x, y, z'
loop_
 _atom_site_type_symbol
 _atom_site_label
 _atom_site_symmetry_multiplicity
 _atom_site_fract_x
 _atom_site_fract_y
 _atom_site_fract_z
 _atom_site_occupancy
  Tl  Tl0  1  0.50230000  0.52580000  0.32350000  1.0
  Tl  Tl1  1  0.49770000  0.02580000  0.67650000  1.0
  Tl  Tl2  1  0.99790000  0.50000000  0.18730000  1.0
  Tl  Tl3  1  0.00210000  0.00000000  0.81270000  1.0
  Zn  Zn4  1  0.17870000  0.51400000  0.60040000  1.0
  Zn  Zn5  1  0.82130000  0.01400000  0.39960000  1.0
  Zn  Zn6  1  0.32900000  0.98170000  0.07280000  1.0
  Zn  Zn7  1  0.67100000  0.48170000  0.92720000  1.0
  As  As8  1  0.30920000  0.48620000  0.93600000  1.0
  As  As9  1  0.81010000  0.51420000  0.60050000  1.0
  As  As10  1  0.69080000  0.98620000  0.06400000  1.0
  As  As11  1  0.18990000  0.01420000  0.39950000  1.0
  O  O12  1  0.67160000  0.09700000  0.25000000  1.0
  O  O13  1  0.32840000  0.59700000  0.75000000  1.0
  O  O14  1  0.23410000  0.73370000  0.43210000  1.0
  O  O15  1  0.76590000  0.23370000  0.56790000  1.0
  O  O16  1  0.21500000  0.74430000  0.01250000  1.0
  O  O17  1  0.78500000  0.24430000  0.98750000  1.0
  O  O18  1  0.32490000  0.11520000  0.27920000  1.0
  O  O19  1  0.67510000  0.61520000  0.72080000  1.0
  O  O20  1  0.79980000  0.66710000  0.44370000  1.0
  O  O21  1  0.20020000  0.16710000  0.55630000  1.0
  O  O22  1  0.21200000  0.27210000  0.03590000  1.0
  O  O23  1  0.78800000  0.77210000  0.96410000  1.0
  O  O24  1  0.98080000  0.48480000  0.68360000  1.0
  O  O25  1  0.01920000  0.98480000  0.31640000  1.0
  O  O26  1  0.51920000  0.05560000  0.97910000  1.0
  O  O27  1  0.48080000  0.55560000  0.02090000  1.0
