# generated using pymatgen
data_AlPO4
_symmetry_space_group_name_H-M   'P 1'
_cell_length_a   4.98194768
_cell_length_b   8.27128650
_cell_length_c   5.06107896
_cell_angle_alpha   90.00000000
_cell_angle_beta   118.56073250
_cell_angle_gamma   90.00000000
_symmetry_Int_Tables_number   1
_chemical_formula_structural   AlPO4
_chemical_formula_sum   'Al2 P2 O8'
_cell_volume   183.17389563
_cell_formula_units_Z   2
loop_
 _symmetry_equiv_pos_site_id
 _symmetry_equiv_pos_as_xyz
  1  'x, y, z'
loop_
 _atom_site_type_symbol
 _atom_site_label
 _atom_site_symmetry_multiplicity
 _atom_site_fract_x
 _atom_site_fract_y
 _atom_site_fract_z
 _atom_site_occupancy
  Al  Al0  1  0.57953012  0.06786652  0.34541641  1
  Al  Al1  1  0.42046988  0.56786652  0.65458359  1
  P  P2  1  0.74799710  0.44161263  0.31038372  1
  P  P3  1  0.25200290  0.94161263  0.68961628  1
  O  O4  1  0.56550161  0.55415407  0.40397059  1
  O  O5  1  0.43449839  0.05415407  0.59602941  1
  O  O6  1  0.08752896  0.45571690  0.52942333  1
  O  O7  1  0.91247104  0.95571690  0.47057667  1
  O  O8  1  0.64906209  0.26831184  0.30923104  1
  O  O9  1  0.35093791  0.76831184  0.69076896  1
  O  O10  1  0.30877350  0.98903803  0.00274708  1
  O  O11  1  0.69122650  0.48903803  0.99725292  1
