# generated using pymatgen
data_LiGaP2O7
_symmetry_space_group_name_H-M   'P 1'
_cell_length_a   4.46017842
_cell_length_b   5.15203650
_cell_length_c   5.15203650
_cell_angle_alpha   102.13587923
_cell_angle_beta   98.58883229
_cell_angle_gamma   98.58883229
_symmetry_Int_Tables_number   1
_chemical_formula_structural   LiGaP2O7
_chemical_formula_sum   'Li1 Ga1 P2 O7'
_cell_volume   112.42677846
_cell_formula_units_Z   1
loop_
 _symmetry_equiv_pos_site_id
 _symmetry_equiv_pos_as_xyz
  1  'x, y, z'
loop_
 _atom_site_type_symbol
 _atom_site_label
 _atom_site_symmetry_multiplicity
 _atom_site_fract_x
 _atom_site_fract_y
 _atom_site_fract_z
 _atom_site_occupancy
  Ga  Ga0  1  0.00000000  0.37483620  0.62516380  1
  Li  Li1  1  0.00000000  0.74925000  0.25075000  1
  O  O2  1  0.80595033  0.64808181  0.84982524  1
  O  O3  1  0.19404967  0.15017476  0.35191819  1
  O  O4  1  0.25449982  0.37477981  0.96167390  1
  O  O5  1  0.74550018  0.03832610  0.62522019  1
  O  O6  1  0.71613245  0.43061100  0.31979330  1
  O  O7  1  0.28386755  0.68020670  0.56938900  1
  O  O8  1  0.50000000  0.96757049  0.03242951  1
  P  P9  1  0.59062570  0.82873651  0.75325238  1
  P  P10  1  0.40937430  0.24674762  0.17126349  1
