# generated using pymatgen
data_ZnH3F
_symmetry_space_group_name_H-M   'P 1'
_cell_length_a   2.82838495
_cell_length_b   3.25424167
_cell_length_c   6.24782414
_cell_angle_alpha   104.81329019
_cell_angle_beta   102.76030904
_cell_angle_gamma   91.20498222
_symmetry_Int_Tables_number   1
_chemical_formula_structural   ZnH3F
_chemical_formula_sum   'Zn1 H3 F1'
_cell_volume   54.03871508
_cell_formula_units_Z   1
loop_
 _symmetry_equiv_pos_site_id
 _symmetry_equiv_pos_as_xyz
  1  'x, y, z'
loop_
 _atom_site_type_symbol
 _atom_site_label
 _atom_site_symmetry_multiplicity
 _atom_site_fract_x
 _atom_site_fract_y
 _atom_site_fract_z
 _atom_site_occupancy
  F  F0  1  0.70919202  0.20919202  0.41838404  1
  H  H1  1  0.97012625  0.44161276  0.08403294  1
  H  H2  1  0.11390669  0.64242018  0.08403294  1
  H  H3  1  0.37405602  0.87405602  0.74811204  1
  Zn  Zn4  1  0.79917099  0.79917099  0.59834198  1
