# generated using pymatgen
data_TeBr3
_symmetry_space_group_name_H-M   'P 1'
_cell_length_a   6.75098494
_cell_length_b   6.75098494
_cell_length_c   7.17727058
_cell_angle_alpha   99.37466410
_cell_angle_beta   99.37466410
_cell_angle_gamma   118.70853364
_symmetry_Int_Tables_number   1
_chemical_formula_structural   TeBr3
_chemical_formula_sum   'Te2 Br6'
_cell_volume   271.85627222
_cell_formula_units_Z   2
loop_
 _symmetry_equiv_pos_site_id
 _symmetry_equiv_pos_as_xyz
  1  'x, y, z'
loop_
 _atom_site_type_symbol
 _atom_site_label
 _atom_site_symmetry_multiplicity
 _atom_site_fract_x
 _atom_site_fract_y
 _atom_site_fract_z
 _atom_site_occupancy
  Br  Br0  1  0.20673329  0.20673329  0.32147074  1
  Br  Br1  1  0.02367934  0.69281305  0.88602750  1
  Br  Br2  1  0.86206102  0.53388887  0.34264824  1
  Br  Br3  1  0.36481697  0.36481697  0.86580299  1
  Br  Br4  1  0.69281305  0.02367934  0.88602750  1
  Br  Br5  1  0.53388887  0.86206102  0.34264824  1
  Te  Te6  1  0.40178517  0.64680530  0.60560539  1
  Te  Te7  1  0.64680530  0.40178517  0.60560539  1
