# generated using pymatgen
data_B3AsO6
_symmetry_space_group_name_H-M   'P 1'
_cell_length_a   4.32303681
_cell_length_b   4.32303681
_cell_length_c   6.29196752
_cell_angle_alpha   77.84783519
_cell_angle_beta   77.84783519
_cell_angle_gamma   74.28042833
_symmetry_Int_Tables_number   1
_chemical_formula_structural   B3AsO6
_chemical_formula_sum   'B3 As1 O6'
_cell_volume   109.17250609
_cell_formula_units_Z   1
loop_
 _symmetry_equiv_pos_site_id
 _symmetry_equiv_pos_as_xyz
  1  'x, y, z'
loop_
 _atom_site_type_symbol
 _atom_site_label
 _atom_site_symmetry_multiplicity
 _atom_site_fract_x
 _atom_site_fract_y
 _atom_site_fract_z
 _atom_site_occupancy
  As  As0  1  0.07706504  0.92293496  0.00000000  1
  B  B1  1  0.28101976  0.71898024  0.50000000  1
  B  B2  1  0.69266256  0.80370457  0.70383255  1
  B  B3  1  0.19629543  0.30733744  0.29616745  1
  O  O4  1  0.50362158  0.89091673  0.89731261  1
  O  O5  1  0.28484457  0.40315411  0.45877559  1
  O  O6  1  0.59684589  0.71515543  0.54122441  1
  O  O7  1  0.02015799  0.80237610  0.69364387  1
  O  O8  1  0.19762390  0.97984201  0.30635613  1
  O  O9  1  0.10908327  0.49637842  0.10268739  1
