# generated using pymatgen
data_AgSnBr3
_symmetry_space_group_name_H-M   'P 1'
_cell_length_a   4.13845560
_cell_length_b   5.88552404
_cell_length_c   6.97405313
_cell_angle_alpha   111.64444621
_cell_angle_beta   107.12953708
_cell_angle_gamma   89.78350926
_symmetry_Int_Tables_number   1
_chemical_formula_structural   AgSnBr3
_chemical_formula_sum   'Ag1 Sn1 Br3'
_cell_volume   149.83084693
_cell_formula_units_Z   1
loop_
 _symmetry_equiv_pos_site_id
 _symmetry_equiv_pos_as_xyz
  1  'x, y, z'
loop_
 _atom_site_type_symbol
 _atom_site_label
 _atom_site_symmetry_multiplicity
 _atom_site_fract_x
 _atom_site_fract_y
 _atom_site_fract_z
 _atom_site_occupancy
  Ag  Ag0  1  0.63983779  0.51341465  0.56314331  1
  Sn  Sn1  1  0.95925047  0.87209881  0.20927342  1
  Br  Br2  1  0.98786223  0.41653351  0.25670491  1
  Br  Br3  1  0.28855909  0.66647922  0.86589529  1
  Br  Br4  1  0.62460142  0.02147380  0.54498108  1
