# generated using pymatgen
data_AlSi4HO10
_symmetry_space_group_name_H-M   'P 1'
_cell_length_a   4.94502416
_cell_length_b   5.90448908
_cell_length_c   7.55509499
_cell_angle_alpha   112.79678959
_cell_angle_beta   93.59335945
_cell_angle_gamma   90.09618314
_symmetry_Int_Tables_number   1
_chemical_formula_structural   AlSi4HO10
_chemical_formula_sum   'Al1 Si4 H1 O10'
_cell_volume   202.88022275
_cell_formula_units_Z   1
loop_
 _symmetry_equiv_pos_site_id
 _symmetry_equiv_pos_as_xyz
  1  'x, y, z'
loop_
 _atom_site_type_symbol
 _atom_site_label
 _atom_site_symmetry_multiplicity
 _atom_site_fract_x
 _atom_site_fract_y
 _atom_site_fract_z
 _atom_site_occupancy
  Al  Al0  1  0.26480668  0.46425154  0.98217922  1
  Si  Si1  1  0.50198428  0.98740501  0.71346028  1
  Si  Si2  1  0.52511161  0.97879595  0.29787594  1
  Si  Si3  1  0.98704685  0.66772490  0.67410253  1
  Si  Si4  1  0.01249971  0.26044159  0.26217951  1
  H  H5  1  0.78440179  0.30419334  0.99252470  1
  O  O6  1  0.58290772  0.02961794  0.52422273  1
  O  O7  1  0.93071447  0.49449105  0.44612363  1
  O  O8  1  0.70032046  0.79074394  0.75251519  1
  O  O9  1  0.32478837  0.19166786  0.28195008  1
  O  O10  1  0.53109608  0.25047245  0.90159544  1
  O  O11  1  0.40540026  0.70874466  0.17572533  1
  O  O12  1  0.18881426  0.89546121  0.69092923  1
  O  O13  1  0.81143612  0.02642794  0.21893727  1
  O  O14  1  0.10562282  0.51487991  0.79333591  1
  O  O15  1  0.98914952  0.33428174  0.06904202  1
