# generated using pymatgen
data_Na2CaZrF8
_symmetry_space_group_name_H-M   'P 1'
_cell_length_a   5.45451236
_cell_length_b   5.50675013
_cell_length_c   6.34915947
_cell_angle_alpha   112.75635739
_cell_angle_beta   112.47317730
_cell_angle_gamma   96.26115861
_symmetry_Int_Tables_number   1
_chemical_formula_structural   Na2CaZrF8
_chemical_formula_sum   'Na2 Ca1 Zr1 F8'
_cell_volume   154.94483142
_cell_formula_units_Z   1
loop_
 _symmetry_equiv_pos_site_id
 _symmetry_equiv_pos_as_xyz
  1  'x, y, z'
loop_
 _atom_site_type_symbol
 _atom_site_label
 _atom_site_symmetry_multiplicity
 _atom_site_fract_x
 _atom_site_fract_y
 _atom_site_fract_z
 _atom_site_occupancy
  Ca  Ca0  1  0.49250786  0.99250786  0.98501572  1
  F  F1  1  0.41418718  0.94401134  0.33505675  1
  F  F2  1  0.30733565  0.29288533  0.20002488  1
  F  F3  1  0.53387394  0.64152730  0.65794829  1
  F  F4  1  0.12407435  0.01642099  0.65794829  1
  F  F5  1  0.92086957  0.39104541  0.33505675  1
  F  F6  1  0.21229198  0.54433207  0.81592662  1
  F  F7  1  0.89268923  0.90713955  0.20002488  1
  F  F8  1  0.60363464  0.27159455  0.81592662  1
  Na  Na9  1  0.71264803  0.71264803  0.42529605  1
  Na  Na10  1  0.03271644  0.53271643  0.06543287  1
  Zr  Zr11  1  0.25331957  0.25331957  0.50663914  1
