# generated using pymatgen
data_KInP2S7
_symmetry_space_group_name_H-M   'P 1'
_cell_length_a   6.52557194
_cell_length_b   6.75797018
_cell_length_c   6.75797018
_cell_angle_alpha   97.82257425
_cell_angle_beta   95.87754957
_cell_angle_gamma   95.87754957
_symmetry_Int_Tables_number   1
_chemical_formula_structural   KInP2S7
_chemical_formula_sum   'K1 In1 P2 S7'
_cell_volume   291.64469582
_cell_formula_units_Z   1
loop_
 _symmetry_equiv_pos_site_id
 _symmetry_equiv_pos_as_xyz
  1  'x, y, z'
loop_
 _atom_site_type_symbol
 _atom_site_label
 _atom_site_symmetry_multiplicity
 _atom_site_fract_x
 _atom_site_fract_y
 _atom_site_fract_z
 _atom_site_occupancy
  In  In0  1  -0.00000000  0.49892600  0.50107400  1
  K  K1  1  0.50000000  0.08314800  0.91685200  1
  P  P2  1  0.08667100  0.03830000  0.36168400  1
  P  P3  1  0.91332900  0.63831600  0.96170000  1
  S  S4  1  -0.00000000  0.95943300  0.04056700  1
  S  S5  1  0.75275300  0.52750100  0.17374000  1
  S  S6  1  0.29188200  0.28866000  0.36925500  1
  S  S7  1  0.70811800  0.63074500  0.71134000  1
  S  S8  1  0.83095100  0.11337000  0.48616000  1
  S  S9  1  0.16904900  0.51384000  0.88663000  1
  S  S10  1  0.24724700  0.82626000  0.47249900  1
