# generated using pymatgen
data_BaAlF5
_symmetry_space_group_name_H-M   'P 1'
_cell_length_a   4.93290000
_cell_length_b   5.60540000
_cell_length_c   13.71680000
_cell_angle_alpha   90.00000000
_cell_angle_beta   90.00000000
_cell_angle_gamma   90.00000000
_symmetry_Int_Tables_number   1
_chemical_formula_structural   BaAlF5
_chemical_formula_sum   'Ba4 Al4 F20'
_cell_volume   379.28155869
_cell_formula_units_Z   4
loop_
 _symmetry_equiv_pos_site_id
 _symmetry_equiv_pos_as_xyz
  1  'x, y, z'
loop_
 _atom_site_type_symbol
 _atom_site_label
 _atom_site_symmetry_multiplicity
 _atom_site_fract_x
 _atom_site_fract_y
 _atom_site_fract_z
 _atom_site_occupancy
  Ba  Ba0  1  0.76970000  0.34050000  0.34430000  1.0
  Ba  Ba1  1  0.26970000  0.15950000  0.65570000  1.0
  Ba  Ba2  1  0.23030000  0.84050000  0.15570000  1.0
  Ba  Ba3  1  0.73030000  0.65950000  0.84430000  1.0
  Al  Al4  1  0.18620000  0.84810000  0.41520000  1.0
  Al  Al5  1  0.68620000  0.65190000  0.58480000  1.0
  Al  Al6  1  0.81380000  0.34810000  0.08480000  1.0
  Al  Al7  1  0.31380000  0.15190000  0.91520000  1.0
  F  F8  1  0.97580000  0.65990000  0.49890000  1.0
  F  F9  1  0.47580000  0.84010000  0.50110000  1.0
  F  F10  1  0.02420000  0.15990000  0.00110000  1.0
  F  F11  1  0.52420000  0.34010000  0.99890000  1.0
  F  F12  1  0.90630000  0.84970000  0.32920000  1.0
  F  F13  1  0.40630000  0.65030000  0.67080000  1.0
  F  F14  1  0.09370000  0.34970000  0.17080000  1.0
  F  F15  1  0.59370000  0.15030000  0.82920000  1.0
  F  F16  1  0.93580000  0.60460000  0.02400000  1.0
  F  F17  1  0.43580000  0.89540000  0.97600000  1.0
  F  F18  1  0.06420000  0.10460000  0.47600000  1.0
  F  F19  1  0.56420000  0.39540000  0.52400000  1.0
  F  F20  1  0.63360000  0.53490000  0.16880000  1.0
  F  F21  1  0.13360000  0.96510000  0.83120000  1.0
  F  F22  1  0.36640000  0.03490000  0.33120000  1.0
  F  F23  1  0.86640000  0.46510000  0.66880000  1.0
  F  F24  1  0.20040000  0.41660000  0.85410000  1.0
  F  F25  1  0.70040000  0.08340000  0.14590000  1.0
  F  F26  1  0.79960000  0.91660000  0.64590000  1.0
  F  F27  1  0.29960000  0.58340000  0.35410000  1.0
