# generated using pymatgen
data_NaGaS2
_symmetry_space_group_name_H-M   'P 1'
_cell_length_a   6.31542293
_cell_length_b   6.31542293
_cell_length_c   6.31542293
_cell_angle_alpha   90.49668194
_cell_angle_beta   119.71365605
_cell_angle_gamma   119.71365605
_symmetry_Int_Tables_number   1
_chemical_formula_structural   NaGaS2
_chemical_formula_sum   'Na2 Ga2 S4'
_cell_volume   178.87525267
_cell_formula_units_Z   2
loop_
 _symmetry_equiv_pos_site_id
 _symmetry_equiv_pos_as_xyz
  1  'x, y, z'
loop_
 _atom_site_type_symbol
 _atom_site_label
 _atom_site_symmetry_multiplicity
 _atom_site_fract_x
 _atom_site_fract_y
 _atom_site_fract_z
 _atom_site_occupancy
  Ga  Ga0  1  0.50000000  0.75000000  0.25000000  1
  Ga  Ga1  1  0.00000000  0.00000000  0.00000000  1
  Na  Na2  1  0.50000000  0.25000000  0.75000000  1
  Na  Na3  1  0.00000000  0.50000000  0.50000000  1
  S  S4  1  0.93797910  0.87500000  0.31297910  1
  S  S5  1  0.06202090  0.37500000  0.93702090  1
  S  S6  1  0.43797910  0.06297910  0.12500000  1
  S  S7  1  0.56202090  0.68702090  0.62500000  1
