# generated using pymatgen
data_SiH3Cl
_symmetry_space_group_name_H-M   'P 1'
_cell_length_a   4.33797246
_cell_length_b   4.33797246
_cell_length_c   7.86142025
_cell_angle_alpha   90.00000000
_cell_angle_beta   90.00000000
_cell_angle_gamma   103.56296087
_symmetry_Int_Tables_number   1
_chemical_formula_structural   SiH3Cl
_chemical_formula_sum   'Si2 H6 Cl2'
_cell_volume   143.81071931
_cell_formula_units_Z   2
loop_
 _symmetry_equiv_pos_site_id
 _symmetry_equiv_pos_as_xyz
  1  'x, y, z'
loop_
 _atom_site_type_symbol
 _atom_site_label
 _atom_site_symmetry_multiplicity
 _atom_site_fract_x
 _atom_site_fract_y
 _atom_site_fract_z
 _atom_site_occupancy
  Cl  Cl0  1  0.81464489  0.81464489  0.25048335  1
  Cl  Cl1  1  0.18535511  0.18535511  0.75048335  1
  H  H2  1  0.20976577  0.57409017  0.45310656  1
  H  H3  1  0.79023423  0.42590983  0.95310656  1
  H  H4  1  0.42590983  0.79023423  0.95310656  1
  H  H5  1  0.57409017  0.20976577  0.45310656  1
  H  H6  1  0.69468835  0.69468835  0.63502503  1
  H  H7  1  0.30531165  0.30531165  0.13502503  1
  Si  Si8  1  0.55415310  0.55415310  0.05111049  1
  Si  Si9  1  0.44584690  0.44584690  0.55111049  1
