# generated using pymatgen
data_ScTlP2S7
_symmetry_space_group_name_H-M   'P 1'
_cell_length_a   6.54321906
_cell_length_b   6.66778234
_cell_length_c   6.66778234
_cell_angle_alpha   98.01097102
_cell_angle_beta   95.94512836
_cell_angle_gamma   95.94512836
_symmetry_Int_Tables_number   1
_chemical_formula_structural   ScTlP2S7
_chemical_formula_sum   'Sc1 Tl1 P2 S7'
_cell_volume   284.45475308
_cell_formula_units_Z   1
loop_
 _symmetry_equiv_pos_site_id
 _symmetry_equiv_pos_as_xyz
  1  'x, y, z'
loop_
 _atom_site_type_symbol
 _atom_site_label
 _atom_site_symmetry_multiplicity
 _atom_site_fract_x
 _atom_site_fract_y
 _atom_site_fract_z
 _atom_site_occupancy
  P  P0  1  0.91128700  0.70587800  0.89556700  1
  P  P1  1  0.08871300  0.10443300  0.29412200  1
  S  S2  1  0.70999900  0.69249800  0.63852500  1
  S  S3  1  0.29000100  0.36147500  0.30750200  1
  S  S4  1  0.83233500  0.18012000  0.41690200  1
  S  S5  1  0.16766500  0.58309800  0.81988000  1
  S  S6  1  0.00000000  0.03193600  0.96806400  1
  S  S7  1  0.75825500  0.60094600  0.11728300  1
  S  S8  1  0.24174500  0.88271700  0.39905400  1
  Sc  Sc9  1  0.00000000  0.55465300  0.44534700  1
  Tl  Tl10  1  0.50000000  0.14716600  0.85283400  1
