# generated using pymatgen
data_LiGeCl3
_symmetry_space_group_name_H-M   'P 1'
_cell_length_a   5.04574230
_cell_length_b   5.04574230
_cell_length_c   5.04574230
_cell_angle_alpha   85.59638715
_cell_angle_beta   85.59638715
_cell_angle_gamma   85.59638715
_symmetry_Int_Tables_number   1
_chemical_formula_structural   LiGeCl3
_chemical_formula_sum   'Li1 Ge1 Cl3'
_cell_volume   127.37972871
_cell_formula_units_Z   1
loop_
 _symmetry_equiv_pos_site_id
 _symmetry_equiv_pos_as_xyz
  1  'x, y, z'
loop_
 _atom_site_type_symbol
 _atom_site_label
 _atom_site_symmetry_multiplicity
 _atom_site_fract_x
 _atom_site_fract_y
 _atom_site_fract_z
 _atom_site_occupancy
  Cl  Cl0  1  0.85028108  0.37018557  0.85028108  1
  Cl  Cl1  1  0.37018557  0.85028108  0.85028108  1
  Cl  Cl2  1  0.85028108  0.85028108  0.37018557  1
  Ge  Ge3  1  0.54089970  0.54089970  0.54089970  1
  Li  Li4  1  0.87931858  0.87931858  0.87931858  1
