# generated using pymatgen
data_Rb3ZrF7
_symmetry_space_group_name_H-M   'P 1'
_cell_length_a   6.09862282
_cell_length_b   6.09862282
_cell_length_c   6.97442294
_cell_angle_alpha   66.77916659
_cell_angle_beta   66.77916659
_cell_angle_gamma   89.42079154
_symmetry_Int_Tables_number   1
_chemical_formula_structural   Rb3ZrF7
_chemical_formula_sum   'Rb3 Zr1 F7'
_cell_volume   215.80761050
_cell_formula_units_Z   1
loop_
 _symmetry_equiv_pos_site_id
 _symmetry_equiv_pos_as_xyz
  1  'x, y, z'
loop_
 _atom_site_type_symbol
 _atom_site_label
 _atom_site_symmetry_multiplicity
 _atom_site_fract_x
 _atom_site_fract_y
 _atom_site_fract_z
 _atom_site_occupancy
  F  F0  1  0.87890105  0.87890105  0.84503584  1
  F  F1  1  0.33032240  0.91077808  0.78946230  1
  F  F2  1  0.02135739  0.70597520  0.21564559  1
  F  F3  1  0.91077808  0.33032240  0.78946230  1
  F  F4  1  0.33732634  0.33732634  0.74746694  1
  F  F5  1  0.70597520  0.02135739  0.21564559  1
  F  F6  1  0.13826485  0.13826485  0.18758972  1
  Rb  Rb7  1  0.23384943  0.76240211  0.50156835  1
  Rb  Rb8  1  0.50831136  0.50831136  0.98789981  1
  Rb  Rb9  1  0.76240211  0.23384943  0.50156835  1
  Zr  Zr10  1  0.04751278  0.04751278  0.96865318  1
