# generated using pymatgen
data_CaPHO4
_symmetry_space_group_name_H-M   'P 1'
_cell_length_a   6.62700000
_cell_length_b   6.91000000
_cell_length_c   6.99800000
_cell_angle_alpha   76.18000000
_cell_angle_beta   83.66000001
_cell_angle_gamma   88.33000001
_symmetry_Int_Tables_number   1
_chemical_formula_structural   CaPHO4
_chemical_formula_sum   'Ca4 P4 H4 O16'
_cell_volume   309.27508829
_cell_formula_units_Z   4
loop_
 _symmetry_equiv_pos_site_id
 _symmetry_equiv_pos_as_xyz
  1  'x, y, z'
loop_
 _atom_site_type_symbol
 _atom_site_label
 _atom_site_symmetry_multiplicity
 _atom_site_fract_x
 _atom_site_fract_y
 _atom_site_fract_z
 _atom_site_occupancy
  Ca  Ca0  1  0.56630000  0.70320000  0.27170000  1.0
  Ca  Ca1  1  0.43690000  0.29250000  0.72810000  1.0
  Ca  Ca2  1  0.16250000  0.82550000  0.66570000  1.0
  Ca  Ca3  1  0.83700000  0.17620000  0.33380000  1.0
  P  P4  1  0.62090000  0.79230000  0.72000000  1.0
  P  P5  1  0.37900000  0.20770000  0.27930000  1.0
  P  P6  1  0.05480000  0.70290000  0.20760000  1.0
  P  P7  1  0.94250000  0.29550000  0.79110000  1.0
  H  H8  1  0.11640000  0.52780000  0.53230000  1.0
  H  H9  1  0.25800000  0.46150000  0.04630000  1.0
  H  H10  1  0.74070000  0.54060000  0.94780000  1.0
  H  H11  1  0.00160000  0.99660000  0.00760000  1.0
  O  O12  1  0.78630000  0.27790000  0.65250000  1.0
  O  O13  1  0.20280000  0.70230000  0.35980000  1.0
  O  O14  1  0.06280000  0.09870000  0.83340000  1.0
  O  O15  1  0.92790000  0.89990000  0.16080000  1.0
  O  O16  1  0.66910000  0.67610000  0.93580000  1.0
  O  O17  1  0.33350000  0.32280000  0.06150000  1.0
  O  O18  1  0.50750000  0.64770000  0.63210000  1.0
  O  O19  1  0.49150000  0.35030000  0.36720000  1.0
  O  O20  1  0.81800000  0.85970000  0.59190000  1.0
  O  O21  1  0.17930000  0.13770000  0.39940000  1.0
  O  O22  1  0.47660000  0.95980000  0.74280000  1.0
  O  O23  1  0.52240000  0.03880000  0.25090000  1.0
  O  O24  1  0.16850000  0.66930000  0.01740000  1.0
  O  O25  1  0.84060000  0.33480000  0.98360000  1.0
  O  O26  1  0.89330000  0.54020000  0.29460000  1.0
  O  O27  1  0.10180000  0.45890000  0.69310000  1.0
