# generated using pymatgen
data_AsOF
_symmetry_space_group_name_H-M   'P 1'
_cell_length_a   4.06327927
_cell_length_b   4.45515022
_cell_length_c   5.61311491
_cell_angle_alpha   89.99961336
_cell_angle_beta   93.98093291
_cell_angle_gamma   90.01000035
_symmetry_Int_Tables_number   1
_chemical_formula_structural   AsOF
_chemical_formula_sum   'As2 O2 F2'
_cell_volume   101.36635322
_cell_formula_units_Z   2
loop_
 _symmetry_equiv_pos_site_id
 _symmetry_equiv_pos_as_xyz
  1  'x, y, z'
loop_
 _atom_site_type_symbol
 _atom_site_label
 _atom_site_symmetry_multiplicity
 _atom_site_fract_x
 _atom_site_fract_y
 _atom_site_fract_z
 _atom_site_occupancy
  As  As0  1  0.85982425  0.25076060  0.81177665  1
  As  As1  1  0.13458109  0.75073549  0.18438906  1
  O  O2  1  0.18652170  0.41885499  0.00868710  1
  O  O3  1  0.80797440  0.91877043  0.98744240  1
  F  F4  1  0.16435631  0.08529863  0.63340509  1
  F  F5  1  0.82985424  0.58501086  0.36244871  1
