# generated using pymatgen
data_H4SO5
_symmetry_space_group_name_H-M   'P 1'
_cell_length_a   6.91202702
_cell_length_b   6.96891490
_cell_length_c   7.86117847
_cell_angle_alpha   90.00000000
_cell_angle_beta   90.00000000
_cell_angle_gamma   90.00000000
_symmetry_Int_Tables_number   1
_chemical_formula_structural   H4SO5
_chemical_formula_sum   'H16 S4 O20'
_cell_volume   378.66768489
_cell_formula_units_Z   4
loop_
 _symmetry_equiv_pos_site_id
 _symmetry_equiv_pos_as_xyz
  1  'x, y, z'
loop_
 _atom_site_type_symbol
 _atom_site_label
 _atom_site_symmetry_multiplicity
 _atom_site_fract_x
 _atom_site_fract_y
 _atom_site_fract_z
 _atom_site_occupancy
  H  H0  1  0.64897379  0.60081247  0.15389995  1
  H  H1  1  0.85102621  0.39918753  0.65389995  1
  H  H2  1  0.35102621  0.10081247  0.34610005  1
  H  H3  1  0.14897379  0.89918753  0.84610005  1
  H  H4  1  0.15930383  0.48657433  0.45107138  1
  H  H5  1  0.34069617  0.51342567  0.95107138  1
  H  H6  1  0.84069617  0.98657433  0.04892862  1
  H  H7  1  0.65930383  0.01342567  0.54892862  1
  H  H8  1  0.30438854  0.61819859  0.33101886  1
  H  H9  1  0.19561146  0.38180141  0.83101886  1
  H  H10  1  0.69561146  0.11819859  0.16898114  1
  H  H11  1  0.80438854  0.88180141  0.66898114  1
  H  H12  1  0.38336808  0.53677191  0.51969067  1
  H  H13  1  0.11663192  0.46322809  0.01969067  1
  H  H14  1  0.61663192  0.03677191  0.98030933  1
  H  H15  1  0.88336808  0.96322809  0.48030933  1
  S  S16  1  0.83156459  0.42389245  0.29985144  1
  S  S17  1  0.66843541  0.57610755  0.79985144  1
  S  S18  1  0.16843541  0.92389245  0.20014856  1
  S  S19  1  0.33156459  0.07610755  0.70014856  1
  O  O20  1  0.92828115  0.46153231  0.46228387  1
  O  O21  1  0.57171885  0.53846769  0.96228387  1
  O  O22  1  0.07171885  0.96153231  0.03771613  1
  O  O23  1  0.42828115  0.03846769  0.53771613  1
  O  O24  1  0.70170702  0.25950732  0.31224156  1
  O  O25  1  0.79829298  0.74049268  0.81224156  1
  O  O26  1  0.29829298  0.75950732  0.18775844  1
  O  O27  1  0.20170702  0.24049268  0.68775844  1
  O  O28  1  0.96596640  0.40607494  0.16036569  1
  O  O29  1  0.53403360  0.59392506  0.66036569  1
  O  O30  1  0.03403360  0.90607494  0.33963431  1
  O  O31  1  0.46596640  0.09392506  0.83963431  1
  O  O32  1  0.70504369  0.60563830  0.27124243  1
  O  O33  1  0.79495631  0.39436170  0.77124243  1
  O  O34  1  0.29495631  0.10563830  0.22875757  1
  O  O35  1  0.20504369  0.89436170  0.72875757  1
  O  O36  1  0.29805971  0.51064704  0.41962151  1
  O  O37  1  0.20194029  0.48935296  0.91962151  1
  O  O38  1  0.70194029  0.01064704  0.08037849  1
  O  O39  1  0.79805971  0.98935296  0.58037849  1
