# generated using pymatgen
data_RbGaP2S7
_symmetry_space_group_name_H-M   'P 1'
_cell_length_a   6.44042857
_cell_length_b   6.44042857
_cell_length_c   6.49079079
_cell_angle_alpha   95.11879603
_cell_angle_beta   95.11879603
_cell_angle_gamma   96.50022985
_symmetry_Int_Tables_number   1
_chemical_formula_structural   RbGaP2S7
_chemical_formula_sum   'Rb1 Ga1 P2 S7'
_cell_volume   265.08937181
_cell_formula_units_Z   1
loop_
 _symmetry_equiv_pos_site_id
 _symmetry_equiv_pos_as_xyz
  1  'x, y, z'
loop_
 _atom_site_type_symbol
 _atom_site_label
 _atom_site_symmetry_multiplicity
 _atom_site_fract_x
 _atom_site_fract_y
 _atom_site_fract_z
 _atom_site_occupancy
  Ga  Ga0  1  0.50501208  0.49498792  0.00000000  1
  P  P1  1  0.36298906  0.04082205  0.07705060  1
  P  P2  1  0.95917795  0.63701094  0.92294940  1
  Rb  Rb3  1  0.91936524  0.08063476  0.50000000  1
  S  S4  1  0.03016117  0.96983883  0.00000000  1
  S  S5  1  0.18899434  0.52225226  0.77059927  1
  S  S6  1  0.37340454  0.30206060  0.27941173  1
  S  S7  1  0.69793940  0.62659546  0.72058827  1
  S  S8  1  0.49809213  0.13138266  0.82543282  1
  S  S9  1  0.86861734  0.50190787  0.17456718  1
  S  S10  1  0.47774774  0.81100566  0.22940073  1
