# generated using pymatgen
data_LiClO3
_symmetry_space_group_name_H-M   'P 1'
_cell_length_a   5.28158859
_cell_length_b   5.55134806
_cell_length_c   8.74796264
_cell_angle_alpha   90.00000000
_cell_angle_beta   90.00000000
_cell_angle_gamma   90.00000000
_symmetry_Int_Tables_number   1
_chemical_formula_structural   LiClO3
_chemical_formula_sum   'Li4 Cl4 O12'
_cell_volume   256.48970975
_cell_formula_units_Z   4
loop_
 _symmetry_equiv_pos_site_id
 _symmetry_equiv_pos_as_xyz
  1  'x, y, z'
loop_
 _atom_site_type_symbol
 _atom_site_label
 _atom_site_symmetry_multiplicity
 _atom_site_fract_x
 _atom_site_fract_y
 _atom_site_fract_z
 _atom_site_occupancy
  Li  Li0  1  0.58451877  0.04406179  0.48196904  1
  Li  Li1  1  0.91548123  0.04406179  0.98196904  1
  Li  Li2  1  0.41548123  0.54406179  0.51803096  1
  Li  Li3  1  0.08451877  0.54406179  0.01803096  1
  Cl  Cl4  1  0.57201841  0.43290744  0.18295787  1
  Cl  Cl5  1  0.42798159  0.93290744  0.81704213  1
  Cl  Cl6  1  0.92798159  0.43290744  0.68295787  1
  Cl  Cl7  1  0.07201841  0.93290744  0.31704213  1
  O  O8  1  0.52419092  0.32918059  0.33892326  1
  O  O9  1  0.86863085  0.83827489  0.41894812  1
  O  O10  1  0.02419092  0.82918059  0.16107674  1
  O  O11  1  0.13136915  0.33827489  0.58105188  1
  O  O12  1  0.36863085  0.33827489  0.08105188  1
  O  O13  1  0.47580908  0.82918059  0.66107674  1
  O  O14  1  0.31537622  0.82237529  0.37062814  1
  O  O15  1  0.81537622  0.32237529  0.12937186  1
  O  O16  1  0.68462378  0.32237529  0.62937186  1
  O  O17  1  0.18462378  0.82237529  0.87062814  1
  O  O18  1  0.97580908  0.32918059  0.83892326  1
  O  O19  1  0.63136915  0.83827489  0.91894812  1
