# generated using pymatgen
data_K2SrCl4
_symmetry_space_group_name_H-M   'P 1'
_cell_length_a   7.83150646
_cell_length_b   7.84605704
_cell_length_c   7.84605704
_cell_angle_alpha   108.26961477
_cell_angle_beta   110.00338438
_cell_angle_gamma   110.00338438
_symmetry_Int_Tables_number   1
_chemical_formula_structural   K2SrCl4
_chemical_formula_sum   'K4 Sr2 Cl8'
_cell_volume   371.67293346
_cell_formula_units_Z   2
loop_
 _symmetry_equiv_pos_site_id
 _symmetry_equiv_pos_as_xyz
  1  'x, y, z'
loop_
 _atom_site_type_symbol
 _atom_site_label
 _atom_site_symmetry_multiplicity
 _atom_site_fract_x
 _atom_site_fract_y
 _atom_site_fract_z
 _atom_site_occupancy
  Cl  Cl0  1  0.86459181  0.51416628  0.51450899  1
  Cl  Cl1  1  0.50005959  0.98280026  0.35054741  1
  Cl  Cl2  1  0.99813361  0.84901162  0.98162414  1
  Cl  Cl3  1  0.00005959  0.35054741  0.98280026  1
  Cl  Cl4  1  0.36459181  0.51450899  0.51416628  1
  Cl  Cl5  1  0.49813361  0.98162414  0.84901162  1
  Cl  Cl6  1  0.62961772  0.64667875  0.14485989  1
  Cl  Cl7  1  0.12961772  0.14485989  0.64667875  1
  K  K8  1  0.61012602  0.35968007  0.74765601  1
  K  K9  1  0.38553568  0.24846349  0.13570996  1
  K  K10  1  0.11012602  0.74765601  0.35968007  1
  K  K11  1  0.88553568  0.13570996  0.24846349  1
  Sr  Sr12  1  0.24763556  0.62347328  0.87221985  1
  Sr  Sr13  1  0.74763556  0.87221985  0.62347328  1
