# generated using pymatgen
data_KPN2
_symmetry_space_group_name_H-M   'P 1'
_cell_length_a   5.17513483
_cell_length_b   5.17513483
_cell_length_c   5.17513483
_cell_angle_alpha   91.22659123
_cell_angle_beta   119.29437209
_cell_angle_gamma   119.29437209
_symmetry_Int_Tables_number   1
_chemical_formula_structural   KPN2
_chemical_formula_sum   'K2 P2 N4'
_cell_volume   99.02612267
_cell_formula_units_Z   2
loop_
 _symmetry_equiv_pos_site_id
 _symmetry_equiv_pos_as_xyz
  1  'x, y, z'
loop_
 _atom_site_type_symbol
 _atom_site_label
 _atom_site_symmetry_multiplicity
 _atom_site_fract_x
 _atom_site_fract_y
 _atom_site_fract_z
 _atom_site_occupancy
  K  K0  1  -0.00000000  0.50000000  0.50000000  1
  K  K1  1  0.50000000  0.25000000  0.75000000  1
  N  N2  1  0.67647882  0.80147882  0.62500000  1
  N  N3  1  0.82352118  0.87500000  0.19852118  1
  N  N4  1  0.32352118  0.94852118  0.12500000  1
  N  N5  1  0.17647882  0.37500000  0.05147882  1
  P  P6  1  0.50000000  0.75000000  0.25000000  1
  P  P7  1  0.00000000  0.00000000  0.00000000  1
