# generated using pymatgen
data_Na2MgSiS4
_symmetry_space_group_name_H-M   'P 1'
_cell_length_a   6.31357153
_cell_length_b   6.31357153
_cell_length_c   6.31357153
_cell_angle_alpha   92.25181206
_cell_angle_beta   118.70854388
_cell_angle_gamma   118.70854388
_symmetry_Int_Tables_number   1
_chemical_formula_structural   Na2MgSiS4
_chemical_formula_sum   'Na2 Mg1 Si1 S4'
_cell_volume   181.27732936
_cell_formula_units_Z   1
loop_
 _symmetry_equiv_pos_site_id
 _symmetry_equiv_pos_as_xyz
  1  'x, y, z'
loop_
 _atom_site_type_symbol
 _atom_site_label
 _atom_site_symmetry_multiplicity
 _atom_site_fract_x
 _atom_site_fract_y
 _atom_site_fract_z
 _atom_site_occupancy
  Mg  Mg0  1  0.50000000  0.75000000  0.25000000  1
  Na  Na1  1  0.50000000  0.25000000  0.75000000  1
  Na  Na2  1  0.00000000  0.00000000  0.00000000  1
  S  S3  1  0.03246257  0.58899769  0.18980438  1
  S  S4  1  0.39919331  0.81019562  0.84265819  1
  S  S5  1  0.60080669  0.44346488  0.41100231  1
  S  S6  1  0.96753743  0.15734181  0.55653512  1
  Si  Si7  1  0.00000000  0.50000000  0.50000000  1
