# generated using pymatgen
data_SrTlVO4
_symmetry_space_group_name_H-M   'P 1'
_cell_length_a   5.93251018
_cell_length_b   7.66364321
_cell_length_c   10.17030103
_cell_angle_alpha   90.00000000
_cell_angle_beta   90.00000000
_cell_angle_gamma   90.00000000
_symmetry_Int_Tables_number   1
_chemical_formula_structural   SrTlVO4
_chemical_formula_sum   'Sr4 Tl4 V4 O16'
_cell_volume   462.38908884
_cell_formula_units_Z   4
loop_
 _symmetry_equiv_pos_site_id
 _symmetry_equiv_pos_as_xyz
  1  'x, y, z'
loop_
 _atom_site_type_symbol
 _atom_site_label
 _atom_site_symmetry_multiplicity
 _atom_site_fract_x
 _atom_site_fract_y
 _atom_site_fract_z
 _atom_site_occupancy
  Sr  Sr0  1  0.97806948  0.25077180  0.70470422  1.0
  Sr  Sr1  1  0.02193052  0.75077180  0.79529578  1.0
  Sr  Sr2  1  0.52193052  0.74922820  0.20470422  1.0
  Sr  Sr3  1  0.47806948  0.24922820  0.29529578  1.0
  Tl  Tl4  1  0.48117093  0.41380122  0.92261921  1.0
  Tl  Tl5  1  0.98117093  0.08619878  0.07738079  1.0
  Tl  Tl6  1  0.51882907  0.91380122  0.57738079  1.0
  Tl  Tl7  1  0.01882907  0.58619878  0.42261921  1.0
  V  V8  1  0.51487279  0.46763580  0.58175780  1.0
  V  V9  1  0.48512721  0.96763580  0.91824220  1.0
  V  V10  1  0.01487279  0.03236420  0.41824220  1.0
  V  V11  1  0.98512721  0.53236420  0.08175780  1.0
  O  O12  1  0.23945977  0.49093929  0.16272993  1.0
  O  O13  1  0.49807276  0.04915836  0.07821591  1.0
  O  O14  1  0.74574464  0.54942534  0.66666667  1.0
  O  O15  1  0.99807276  0.45084164  0.92178409  1.0
  O  O16  1  0.25425536  0.04942534  0.83334794  1.0
  O  O17  1  0.73945977  0.00906071  0.83727007  1.0
  O  O18  1  0.26054023  0.50906071  0.66272993  1.0
  O  O19  1  0.24574464  0.95057466  0.33333333  1.0
  O  O20  1  0.43416082  0.74738205  0.93372159  1.0
  O  O21  1  0.93416082  0.75261795  0.06627841  1.0
  O  O22  1  0.76054023  0.99093929  0.33727007  1.0
  O  O23  1  0.50192724  0.54915836  0.42178409  1.0
  O  O24  1  0.75425536  0.45057466  0.16665206  1.0
  O  O25  1  0.00192724  0.95084164  0.57821591  1.0
  O  O26  1  0.06583918  0.25261795  0.43372159  1.0
  O  O27  1  0.56583918  0.24738205  0.56627841  1.0
