# generated using pymatgen
data_SiO2
_symmetry_space_group_name_H-M   'P 1'
_cell_length_a   4.95458093
_cell_length_b   4.95458093
_cell_length_c   5.06200331
_cell_angle_alpha   60.71772550
_cell_angle_beta   60.71772550
_cell_angle_gamma   89.99948031
_symmetry_Int_Tables_number   1
_chemical_formula_structural   SiO2
_chemical_formula_sum   'Si2 O4'
_cell_volume   89.73893666
_cell_formula_units_Z   2
loop_
 _symmetry_equiv_pos_site_id
 _symmetry_equiv_pos_as_xyz
  1  'x, y, z'
loop_
 _atom_site_type_symbol
 _atom_site_label
 _atom_site_symmetry_multiplicity
 _atom_site_fract_x
 _atom_site_fract_y
 _atom_site_fract_z
 _atom_site_occupancy
  O  O0  1  0.62501779  0.02821916  0.25000594  1
  O  O1  1  0.02821916  0.62501779  0.75000594  1
  O  O2  1  0.22174148  0.12499572  0.75001199  1
  O  O3  1  0.12499572  0.22174148  0.25001199  1
  Si  Si4  1  0.99992617  0.25001384  0.99998884  1
  Si  Si5  1  0.25001384  0.99992617  0.49998884  1
