# generated using pymatgen
data_BeH4NF3
_symmetry_space_group_name_H-M   'P 1'
_cell_length_a   4.54990826
_cell_length_b   5.60426454
_cell_length_c   13.06799547
_cell_angle_alpha   90.00000000
_cell_angle_beta   90.00000000
_cell_angle_gamma   90.00000000
_symmetry_Int_Tables_number   1
_chemical_formula_structural   BeH4NF3
_chemical_formula_sum   'Be4 H16 N4 F12'
_cell_volume   333.21937276
_cell_formula_units_Z   4
loop_
 _symmetry_equiv_pos_site_id
 _symmetry_equiv_pos_as_xyz
  1  'x, y, z'
loop_
 _atom_site_type_symbol
 _atom_site_label
 _atom_site_symmetry_multiplicity
 _atom_site_fract_x
 _atom_site_fract_y
 _atom_site_fract_z
 _atom_site_occupancy
  Be  Be0  1  0.17726832  0.18511407  0.56233102  1
  Be  Be1  1  0.32273168  0.81488593  0.06233102  1
  Be  Be2  1  0.67726832  0.31488593  0.43766898  1
  Be  Be3  1  0.82273168  0.68511407  0.93766898  1
  H  H4  1  0.71205562  0.74267590  0.72872418  1
  H  H5  1  0.78794438  0.25732410  0.22872418  1
  H  H6  1  0.21205562  0.75732410  0.27127582  1
  H  H7  1  0.28794438  0.24267590  0.77127582  1
  H  H8  1  0.52133869  0.79110402  0.61776419  1
  H  H9  1  0.97866131  0.20889598  0.11776419  1
  H  H10  1  0.02133869  0.70889598  0.38223581  1
  H  H11  1  0.47866131  0.29110402  0.88223581  1
  H  H12  1  0.89781228  0.76649060  0.61539874  1
  H  H13  1  0.60218772  0.23350940  0.11539874  1
  H  H14  1  0.39781228  0.73350940  0.38460126  1
  H  H15  1  0.10218772  0.26649060  0.88460126  1
  H  H16  1  0.67780541  0.52457108  0.63775120  1
  H  H17  1  0.82219459  0.47542892  0.13775120  1
  H  H18  1  0.17780541  0.97542892  0.36224880  1
  H  H19  1  0.32219459  0.02457108  0.86224880  1
  N  N20  1  0.70458902  0.70520195  0.64971934  1
  N  N21  1  0.79541098  0.29479805  0.14971934  1
  N  N22  1  0.20458902  0.79479805  0.35028066  1
  N  N23  1  0.29541098  0.20520195  0.85028066  1
  F  F24  1  0.84067750  0.24039149  0.54036029  1
  F  F25  1  0.65932250  0.75960851  0.04036029  1
  F  F26  1  0.34067750  0.25960851  0.45963971  1
  F  F27  1  0.15932250  0.74039149  0.95963971  1
  F  F28  1  0.28336670  0.33072766  0.65327517  1
  F  F29  1  0.21663330  0.66927234  0.15327517  1
  F  F30  1  0.78336670  0.16927234  0.34672483  1
  F  F31  1  0.71663330  0.83072766  0.84672483  1
  F  F32  1  0.20910799  0.91388642  0.57781830  1
  F  F33  1  0.29089201  0.08611358  0.07781830  1
  F  F34  1  0.70910799  0.58611358  0.42218170  1
  F  F35  1  0.79089201  0.41388642  0.92218170  1
