# generated using pymatgen
data_PNClF
_symmetry_space_group_name_H-M   'P 1'
_cell_length_a   7.96907300
_cell_length_b   8.15397046
_cell_length_c   8.15397046
_cell_angle_alpha   104.72194465
_cell_angle_beta   90.00000000
_cell_angle_gamma   90.00000000
_symmetry_Int_Tables_number   1
_chemical_formula_structural   PNClF
_chemical_formula_sum   'P6 N6 Cl6 F6'
_cell_volume   512.44718311
_cell_formula_units_Z   6
loop_
 _symmetry_equiv_pos_site_id
 _symmetry_equiv_pos_as_xyz
  1  'x, y, z'
loop_
 _atom_site_type_symbol
 _atom_site_label
 _atom_site_symmetry_multiplicity
 _atom_site_fract_x
 _atom_site_fract_y
 _atom_site_fract_z
 _atom_site_occupancy
  Cl  Cl0  1  0.00347200  0.26317400  0.26317400  1
  Cl  Cl1  1  0.44367600  0.23450300  0.83709000  1
  Cl  Cl2  1  0.94367600  0.16291000  0.76549700  1
  Cl  Cl3  1  0.94367600  0.76549700  0.16291000  1
  Cl  Cl4  1  0.50347200  0.73682600  0.73682600  1
  Cl  Cl5  1  0.44367600  0.83709000  0.23450300  1
  F  F6  1  0.13068900  0.90680200  0.56582600  1
  F  F7  1  0.63068900  0.09319800  0.43417400  1
  F  F8  1  0.63068900  0.43417400  0.09319800  1
  F  F9  1  0.70876500  0.51633700  0.51633700  1
  F  F10  1  0.20876500  0.48366300  0.48366300  1
  F  F11  1  0.13068900  0.56582600  0.90680200  1
  N  N12  1  0.33094600  0.39717500  0.18545900  1
  N  N13  1  0.83094600  0.60282500  0.81454100  1
  N  N14  1  0.56622500  0.14459000  0.14459000  1
  N  N15  1  0.33094600  0.18545900  0.39717500  1
  N  N16  1  0.83094600  0.81454100  0.60282500  1
  N  N17  1  0.06622500  0.85541000  0.85541000  1
  P  P18  1  0.24071900  0.32813100  0.32813100  1
  P  P19  1  0.98800000  0.70010100  0.91401800  1
  P  P20  1  0.48800000  0.29989900  0.08598200  1
  P  P21  1  0.48800000  0.08598200  0.29989900  1
  P  P22  1  0.98800000  0.91401800  0.70010100  1
  P  P23  1  0.74071900  0.67186900  0.67186900  1
