# generated using pymatgen
data_BiTeIr
_symmetry_space_group_name_H-M   'P 1'
_cell_length_a   6.51814264
_cell_length_b   6.51814264
_cell_length_c   6.51814264
_cell_angle_alpha   90.00000000
_cell_angle_beta   90.00000000
_cell_angle_gamma   90.00000000
_symmetry_Int_Tables_number   1
_chemical_formula_structural   BiTeIr
_chemical_formula_sum   'Bi4 Te4 Ir4'
_cell_volume   276.93100412
_cell_formula_units_Z   4
loop_
 _symmetry_equiv_pos_site_id
 _symmetry_equiv_pos_as_xyz
  1  'x, y, z'
loop_
 _atom_site_type_symbol
 _atom_site_label
 _atom_site_symmetry_multiplicity
 _atom_site_fract_x
 _atom_site_fract_y
 _atom_site_fract_z
 _atom_site_occupancy
  Bi  Bi0  1  0.36804131  0.36804131  0.36804131  1
  Bi  Bi1  1  0.13195869  0.63195869  0.86804131  1
  Bi  Bi2  1  0.86804131  0.13195869  0.63195869  1
  Bi  Bi3  1  0.63195869  0.86804131  0.13195869  1
  Te  Te4  1  0.62629630  0.62629630  0.62629630  1
  Te  Te5  1  0.87370370  0.37370370  0.12629630  1
  Te  Te6  1  0.12629630  0.87370370  0.37370370  1
  Te  Te7  1  0.37370370  0.12629630  0.87370370  1
  Ir  Ir8  1  0.00757761  0.00757761  0.00757761  1
  Ir  Ir9  1  0.49242239  0.99242239  0.50757761  1
  Ir  Ir10  1  0.50757761  0.49242239  0.99242239  1
  Ir  Ir11  1  0.99242239  0.50757761  0.49242239  1
