# generated using pymatgen
data_NaGaSe2
_symmetry_space_group_name_H-M   'P 1'
_cell_length_a   6.63152154
_cell_length_b   6.63152154
_cell_length_c   6.63152154
_cell_angle_alpha   90.59798105
_cell_angle_beta   119.65535811
_cell_angle_gamma   119.65535811
_symmetry_Int_Tables_number   1
_chemical_formula_structural   NaGaSe2
_chemical_formula_sum   'Na2 Ga2 Se4'
_cell_volume   207.27905800
_cell_formula_units_Z   2
loop_
 _symmetry_equiv_pos_site_id
 _symmetry_equiv_pos_as_xyz
  1  'x, y, z'
loop_
 _atom_site_type_symbol
 _atom_site_label
 _atom_site_symmetry_multiplicity
 _atom_site_fract_x
 _atom_site_fract_y
 _atom_site_fract_z
 _atom_site_occupancy
  Ga  Ga0  1  0.50000000  0.75000000  0.25000000  1
  Ga  Ga1  1  0.00000000  0.00000000  0.00000000  1
  Na  Na2  1  0.50000000  0.25000000  0.75000000  1
  Na  Na3  1  0.00000000  0.50000000  0.50000000  1
  Se  Se4  1  0.05773910  0.68273910  0.12500000  1
  Se  Se5  1  0.94226090  0.06726090  0.62500000  1
  Se  Se6  1  0.55773910  0.87500000  0.93273910  1
  Se  Se7  1  0.44226090  0.37500000  0.31726090  1
