# generated using pymatgen
data_Li3NbO4
_symmetry_space_group_name_H-M   'P 1'
_cell_length_a   7.28898835
_cell_length_b   7.28898835
_cell_length_c   7.28898835
_cell_angle_alpha   109.47122063
_cell_angle_beta   109.47122063
_cell_angle_gamma   109.47122063
_symmetry_Int_Tables_number   1
_chemical_formula_structural   Li3NbO4
_chemical_formula_sum   'Li12 Nb4 O16'
_cell_volume   298.11228730
_cell_formula_units_Z   4
loop_
 _symmetry_equiv_pos_site_id
 _symmetry_equiv_pos_as_xyz
  1  'x, y, z'
loop_
 _atom_site_type_symbol
 _atom_site_label
 _atom_site_symmetry_multiplicity
 _atom_site_fract_x
 _atom_site_fract_y
 _atom_site_fract_z
 _atom_site_occupancy
  Li  Li0  1  0.72789046  0.00000000  0.48743485  1
  Li  Li1  1  0.51256515  0.24045561  0.51256515  1
  Li  Li2  1  0.27210955  0.75954439  0.27210955  1
  Li  Li3  1  0.48743485  0.72789046  -0.00000000  1
  Li  Li4  1  0.48743485  1.00000000  0.72789046  1
  Li  Li5  1  0.72789046  0.48743485  0.00000000  1
  Li  Li6  1  -0.00000000  0.72789046  0.48743485  1
  Li  Li7  1  0.27210955  0.27210955  0.75954439  1
  Li  Li8  1  0.24045561  0.51256515  0.51256515  1
  Li  Li9  1  0.51256515  0.51256515  0.24045561  1
  Li  Li10  1  0.00000000  0.48743485  0.72789046  1
  Li  Li11  1  0.75954439  0.27210955  0.27210955  1
  Nb  Nb12  1  0.71716609  0.71716609  0.71716609  1
  Nb  Nb13  1  1.00000000  1.00000000  0.28283391  1
  Nb  Nb14  1  -0.00000000  0.28283391  -0.00000000  1
  Nb  Nb15  1  0.28283391  0.00000000  0.00000000  1
  O  O16  1  0.48880195  -0.00000000  0.24186794  1
  O  O17  1  0.75306599  0.51119805  0.51119805  1
  O  O18  1  -0.00000000  0.24186794  0.48880195  1
  O  O19  1  0.00000000  0.48880195  0.24186794  1
  O  O20  1  0.77095685  0.00000000  0.00000000  1
  O  O21  1  -0.00000000  0.77095685  -0.00000000  1
  O  O22  1  0.00000000  1.00000000  0.77095685  1
  O  O23  1  0.22904315  0.22904315  0.22904315  1
  O  O24  1  0.24693401  0.75813206  0.75813206  1
  O  O25  1  0.75813206  0.24693401  0.75813206  1
  O  O26  1  0.75813206  0.75813206  0.24693401  1
  O  O27  1  0.24186794  0.00000000  0.48880195  1
  O  O28  1  0.51119805  0.51119805  0.75306599  1
  O  O29  1  0.51119805  0.75306599  0.51119805  1
  O  O30  1  0.24186794  0.48880195  0.00000000  1
  O  O31  1  0.48880195  0.24186794  -0.00000000  1
