# generated using pymatgen
data_Sc2TeO6
_symmetry_space_group_name_H-M   'P 1'
_cell_length_a   8.74060015
_cell_length_b   8.74060015
_cell_length_c   4.79850000
_cell_angle_alpha   90.00000000
_cell_angle_beta   90.00000000
_cell_angle_gamma   120.00000000
_symmetry_Int_Tables_number   1
_chemical_formula_structural   Sc2TeO6
_chemical_formula_sum   'Sc6 Te3 O18'
_cell_volume   317.48165641
_cell_formula_units_Z   3
loop_
 _symmetry_equiv_pos_site_id
 _symmetry_equiv_pos_as_xyz
  1  'x, y, z'
loop_
 _atom_site_type_symbol
 _atom_site_label
 _atom_site_symmetry_multiplicity
 _atom_site_fract_x
 _atom_site_fract_y
 _atom_site_fract_z
 _atom_site_occupancy
  Sc  Sc0  1  0.29420000  0.00000000  0.50000000  1.0
  Sc  Sc1  1  0.62986000  0.00000000  0.00000000  1.0
  Sc  Sc2  1  0.70580000  0.70580000  0.50000000  1.0
  Sc  Sc3  1  0.00000000  0.62986000  0.00000000  1.0
  Sc  Sc4  1  0.37014000  0.37014000  0.00000000  1.0
  Sc  Sc5  1  0.00000000  0.29420000  0.50000000  1.0
  Te  Te6  1  0.00000000  0.00000000  0.00000000  1.0
  Te  Te7  1  0.66666667  0.33333333  0.49877000  1.0
  Te  Te8  1  0.33333333  0.66666667  0.50123000  1.0
  O  O9  1  0.87490000  0.08420000  0.21640000  1.0
  O  O10  1  0.45750000  0.58140000  0.72350000  1.0
  O  O11  1  0.21920000  0.76180000  0.27810000  1.0
  O  O12  1  0.76180000  0.21920000  0.72190000  1.0
  O  O13  1  0.54260000  0.78080000  0.27810000  1.0
  O  O14  1  0.23820000  0.45740000  0.27810000  1.0
  O  O15  1  0.12390000  0.54250000  0.72350000  1.0
  O  O16  1  0.58140000  0.45750000  0.27650000  1.0
  O  O17  1  0.54250000  0.12390000  0.27650000  1.0
  O  O18  1  0.87610000  0.41860000  0.27650000  1.0
  O  O19  1  0.45740000  0.23820000  0.72190000  1.0
  O  O20  1  0.20930000  0.12510000  0.21640000  1.0
  O  O21  1  0.91580000  0.79070000  0.21640000  1.0
  O  O22  1  0.12510000  0.20930000  0.78360000  1.0
  O  O23  1  0.79070000  0.91580000  0.78360000  1.0
  O  O24  1  0.08420000  0.87490000  0.78360000  1.0
  O  O25  1  0.41860000  0.87610000  0.72350000  1.0
  O  O26  1  0.78080000  0.54260000  0.72190000  1.0
