# generated using pymatgen
data_Ca4Si3B5(HO4)5
_symmetry_space_group_name_H-M   'P 1'
_cell_length_a   4.87409924
_cell_length_b   7.65782869
_cell_length_c   9.59429347
_cell_angle_alpha   89.69274219
_cell_angle_beta   89.59230087
_cell_angle_gamma   89.70969364
_symmetry_Int_Tables_number   1
_chemical_formula_structural   Ca4Si3B5(HO4)5
_chemical_formula_sum   'Ca4 Si3 B5 H5 O20'
_cell_volume   358.08842394
_cell_formula_units_Z   1
loop_
 _symmetry_equiv_pos_site_id
 _symmetry_equiv_pos_as_xyz
  1  'x, y, z'
loop_
 _atom_site_type_symbol
 _atom_site_label
 _atom_site_symmetry_multiplicity
 _atom_site_fract_x
 _atom_site_fract_y
 _atom_site_fract_z
 _atom_site_occupancy
  Ca  Ca0  1  0.99181500  0.60840100  0.16823700  1
  Ca  Ca1  1  0.00322400  0.10531600  0.33291000  1
  Ca  Ca2  1  0.01046500  0.39609700  0.83773600  1
  Ca  Ca3  1  0.97956500  0.88307400  0.66466500  1
  Si  Si4  1  0.53004100  0.26578300  0.08769500  1
  Si  Si5  1  0.53067100  0.24284900  0.58688900  1
  Si  Si6  1  0.46728700  0.73511200  0.91527200  1
  B  B7  1  0.56059800  0.90310700  0.16759300  1
  B  B8  1  0.43099900  0.41841800  0.34305100  1
  B  B9  1  0.42778900  0.08997900  0.84268400  1
  B  B10  1  0.56616500  0.59643900  0.65052400  1
  B  B11  1  0.48728200  0.74575100  0.40846900  1
  H  H12  1  0.19989900  0.96266700  0.07525300  1
  H  H13  1  0.80256800  0.47132500  0.42463400  1
  H  H14  1  0.80061800  0.03648000  0.92686500  1
  H  H15  1  0.19594300  0.54803800  0.56787100  1
  H  H16  1  0.43220000  0.96911300  0.49562900  1
  O  O17  1  0.66684900  0.80107300  0.04399300  1
  O  O18  1  0.32320700  0.30275700  0.45915900  1
  O  O19  1  0.32769300  0.19853000  0.96053200  1
  O  O20  1  0.66497700  0.69759300  0.53006500  1
  O  O21  1  0.28830700  0.88846700  0.46031500  1
  O  O22  1  0.76148200  0.39928700  0.03887400  1
  O  O23  1  0.74072000  0.09219800  0.53668300  1
  O  O24  1  0.24128300  0.59732200  0.96204100  1
  O  O25  1  0.66379100  0.82289700  0.29577800  1
  O  O26  1  0.32187900  0.34085600  0.21296800  1
  O  O27  1  0.32235700  0.16889200  0.71159400  1
  O  O28  1  0.67278700  0.67276000  0.78344900  1
  O  O29  1  0.32401100  0.59648200  0.35920100  1
  O  O30  1  0.67765400  0.08422800  0.15331400  1
  O  O31  1  0.69094200  0.41621600  0.64546600  1
  O  O32  1  0.30654200  0.91401100  0.85454300  1
  O  O33  1  0.25243100  0.91199200  0.16552500  1
  O  O34  1  0.73974300  0.41139600  0.34031300  1
  O  O35  1  0.73610600  0.08356200  0.83738700  1
  O  O36  1  0.25950500  0.58783100  0.65942200  1
