# generated using pymatgen
data_K3NbO4
_symmetry_space_group_name_H-M   'P 1'
_cell_length_a   5.94359454
_cell_length_b   5.94359454
_cell_length_c   6.09957797
_cell_angle_alpha   100.30004863
_cell_angle_beta   114.79177882
_cell_angle_gamma   112.71688914
_symmetry_Int_Tables_number   1
_chemical_formula_structural   K3NbO4
_chemical_formula_sum   'K3 Nb1 O4'
_cell_volume   164.82928345
_cell_formula_units_Z   1
loop_
 _symmetry_equiv_pos_site_id
 _symmetry_equiv_pos_as_xyz
  1  'x, y, z'
loop_
 _atom_site_type_symbol
 _atom_site_label
 _atom_site_symmetry_multiplicity
 _atom_site_fract_x
 _atom_site_fract_y
 _atom_site_fract_z
 _atom_site_occupancy
  K  K0  1  0.52959645  0.77716945  0.25592469  1
  K  K1  1  0.08760300  0.08760300  -0.00000000  1
  K  K2  1  0.52124476  0.27367176  0.74407531  1
  Nb  Nb3  1  0.00321719  0.50321719  0.50000000  1
  O  O4  1  0.03507063  0.83533802  0.53566062  1
  O  O5  1  0.29967740  0.49941001  0.46433938  1
  O  O6  1  0.63931511  0.23634708  0.20107162  1
  O  O7  1  0.03527546  0.43824349  0.79892838  1
