# generated using pymatgen
data_KP(HO2)2
_symmetry_space_group_name_H-M   'P 1'
_cell_length_a   6.20628226
_cell_length_b   4.55249400
_cell_length_c   14.54505903
_cell_angle_alpha   90.00000000
_cell_angle_beta   91.76495440
_cell_angle_gamma   90.00000000
_symmetry_Int_Tables_number   1
_chemical_formula_structural   KP(HO2)2
_chemical_formula_sum   'K4 P4 H8 O16'
_cell_volume   410.76204680
_cell_formula_units_Z   4
loop_
 _symmetry_equiv_pos_site_id
 _symmetry_equiv_pos_as_xyz
  1  'x, y, z'
loop_
 _atom_site_type_symbol
 _atom_site_label
 _atom_site_symmetry_multiplicity
 _atom_site_fract_x
 _atom_site_fract_y
 _atom_site_fract_z
 _atom_site_occupancy
  K  K0  1  0.76484100  0.24909400  0.13350800  1
  K  K1  1  0.24096800  0.72167600  0.36765400  1
  K  K2  1  0.24096800  0.27832400  0.86765400  1
  K  K3  1  0.76484100  0.75090600  0.63350800  1
  P  P4  1  0.73419800  0.20252600  0.37211400  1
  P  P5  1  0.24937700  0.70691500  0.12710300  1
  P  P6  1  0.24937700  0.29308500  0.62710300  1
  P  P7  1  0.73419800  0.79747400  0.87211400  1
  H  H8  1  0.74147200  0.73359200  0.31222200  1
  H  H9  1  0.25206800  0.23669900  0.18687900  1
  H  H10  1  0.25206800  0.76330100  0.68687900  1
  H  H11  1  0.74147200  0.26640800  0.81222200  1
  H  H12  1  0.98343800  0.21015100  0.49027700  1
  H  H13  1  0.98343800  0.78984900  0.99027700  1
  H  H14  1  0.48912500  0.76890500  0.01322200  1
  H  H15  1  0.48912500  0.23109500  0.51322200  1
  O  O16  1  0.66589700  0.94103000  0.30584500  1
  O  O17  1  0.33100100  0.44415400  0.19053200  1
  O  O18  1  0.33100100  0.55584600  0.69053200  1
  O  O19  1  0.66589700  0.05897000  0.80584500  1
  O  O20  1  0.90439900  0.06221400  0.44351800  1
  O  O21  1  0.08984100  0.59004300  0.05343300  1
  O  O22  1  0.08984100  0.40995700  0.55343300  1
  O  O23  1  0.90439900  0.93778600  0.94351800  1
  O  O24  1  0.53356900  0.30827200  0.42148700  1
  O  O25  1  0.46049100  0.83274100  0.08204200  1
  O  O26  1  0.46049100  0.16725900  0.58204200  1
  O  O27  1  0.53356900  0.69172800  0.92148700  1
  O  O28  1  0.83840600  0.44469800  0.31553800  1
  O  O29  1  0.15901000  0.94938900  0.18782800  1
  O  O30  1  0.15901000  0.05061100  0.68782800  1
  O  O31  1  0.83840600  0.55530200  0.81553800  1
