# generated using pymatgen
data_Tl3Ga9S13O2
_symmetry_space_group_name_H-M   'P 1'
_cell_length_a   9.59800008
_cell_length_b   9.59800008
_cell_length_c   7.43300000
_cell_angle_alpha   90.00000000
_cell_angle_beta   90.00000000
_cell_angle_gamma   120.00000000
_symmetry_Int_Tables_number   1
_chemical_formula_structural   Tl3Ga9S13O2
_chemical_formula_sum   'Tl3 Ga9 S13 O2'
_cell_volume   593.00214314
_cell_formula_units_Z   1
loop_
 _symmetry_equiv_pos_site_id
 _symmetry_equiv_pos_as_xyz
  1  'x, y, z'
loop_
 _atom_site_type_symbol
 _atom_site_label
 _atom_site_symmetry_multiplicity
 _atom_site_fract_x
 _atom_site_fract_y
 _atom_site_fract_z
 _atom_site_occupancy
  Tl  Tl0  1  0.33333333  0.66666667  0.50000000  1.0
  Tl  Tl1  1  0.00000000  0.00000000  0.00000000  1.0
  Tl  Tl2  1  0.00000000  0.00000000  0.50000000  1.0
  Ga  Ga3  1  0.80589967  0.55920033  0.26490000  1.0
  Ga  Ga4  1  0.07359967  0.45690033  0.00000000  1.0
  Ga  Ga5  1  0.80589967  0.55920033  0.73510000  1.0
  Ga  Ga6  1  0.75330067  0.19410033  0.73510000  1.0
  Ga  Ga7  1  0.54309967  0.61669933  0.00000000  1.0
  Ga  Ga8  1  0.44079967  0.24669933  0.26490000  1.0
  Ga  Ga9  1  0.44079967  0.24669933  0.73510000  1.0
  Ga  Ga10  1  0.38330067  0.92640033  0.00000000  1.0
  Ga  Ga11  1  0.75330067  0.19410033  0.26490000  1.0
  S  S12  1  0.68349967  0.70660033  0.25540000  1.0
  S  S13  1  0.36099967  0.33600033  0.50000000  1.0
  S  S14  1  0.95799967  0.61700033  0.00000000  1.0
  S  S15  1  0.97500067  0.63900033  0.50000000  1.0
  S  S16  1  0.02310067  0.31650033  0.25540000  1.0
  S  S17  1  0.38299967  0.34099933  0.00000000  1.0
  S  S18  1  0.66399967  0.02499933  0.50000000  1.0
  S  S19  1  0.68349967  0.70660033  0.74460000  1.0
  S  S20  1  0.02310067  0.31650033  0.74460000  1.0
  S  S21  1  0.29339967  0.97689933  0.25540000  1.0
  S  S22  1  0.65900067  0.04200033  0.00000000  1.0
  S  S23  1  0.29339967  0.97689933  0.74460000  1.0
  S  S24  1  0.33333333  0.66666667  0.00000000  1.0
  O  O25  1  0.66666667  0.33333333  0.73900000  1.0
  O  O26  1  0.66666667  0.33333333  0.26100000  1.0
