# generated using pymatgen
data_K3HfF7
_symmetry_space_group_name_H-M   'P 1'
_cell_length_a   5.85989804
_cell_length_b   5.85989804
_cell_length_c   6.72649836
_cell_angle_alpha   66.57342135
_cell_angle_beta   66.57342135
_cell_angle_gamma   89.20791165
_symmetry_Int_Tables_number   1
_chemical_formula_structural   K3HfF7
_chemical_formula_sum   'K3 Hf1 F7'
_cell_volume   191.59273309
_cell_formula_units_Z   1
loop_
 _symmetry_equiv_pos_site_id
 _symmetry_equiv_pos_as_xyz
  1  'x, y, z'
loop_
 _atom_site_type_symbol
 _atom_site_label
 _atom_site_symmetry_multiplicity
 _atom_site_fract_x
 _atom_site_fract_y
 _atom_site_fract_z
 _atom_site_occupancy
  F  F0  1  0.87024959  0.87024959  0.84890814  1
  F  F1  1  0.33771632  0.90858073  0.78125132  1
  F  F2  1  0.02443521  0.69653214  0.22263497  1
  F  F3  1  0.90858073  0.33771632  0.78125132  1
  F  F4  1  0.34664242  0.34664242  0.74074307  1
  F  F5  1  0.69653214  0.02443521  0.22263497  1
  F  F6  1  0.14089046  0.14089046  0.19388359  1
  Hf  Hf7  1  0.04757877  0.04757877  0.96928977  1
  K  K8  1  0.23134229  0.76272277  0.50349611  1
  K  K9  1  0.50830830  0.50830830  0.98241265  1
  K  K10  1  0.76272277  0.23134229  0.50349611  1
