# generated using pymatgen
data_KGaP2S7
_symmetry_space_group_name_H-M   'P 1'
_cell_length_a   6.30170740
_cell_length_b   6.44102659
_cell_length_c   6.44102659
_cell_angle_alpha   96.82350312
_cell_angle_beta   95.27443143
_cell_angle_gamma   95.27443143
_symmetry_Int_Tables_number   1
_chemical_formula_structural   KGaP2S7
_chemical_formula_sum   'K1 Ga1 P2 S7'
_cell_volume   257.08458798
_cell_formula_units_Z   1
loop_
 _symmetry_equiv_pos_site_id
 _symmetry_equiv_pos_as_xyz
  1  'x, y, z'
loop_
 _atom_site_type_symbol
 _atom_site_label
 _atom_site_symmetry_multiplicity
 _atom_site_fract_x
 _atom_site_fract_y
 _atom_site_fract_z
 _atom_site_occupancy
  Ga  Ga0  1  0.00000000  0.50397274  0.49602726  1
  K  K1  1  0.50000000  0.91712544  0.08287456  1
  P  P2  1  0.92164452  0.95865694  0.63484419  1
  P  P3  1  0.07835548  0.36515581  0.04134306  1
  S  S4  1  0.00000000  0.03174049  0.96825951  1
  S  S5  1  0.23630849  0.48226045  0.81407745  1
  S  S6  1  0.71376381  0.69671125  0.62671679  1
  S  S7  1  0.28623619  0.37328321  0.30328875  1
  S  S8  1  0.18147763  0.86867946  0.50200635  1
  S  S9  1  0.81852237  0.49799365  0.13132054  1
  S  S10  1  0.76369151  0.18592255  0.51773955  1
