# generated using pymatgen
data_Rb3NbO4
_symmetry_space_group_name_H-M   'P 1'
_cell_length_a   6.17999356
_cell_length_b   6.17999356
_cell_length_c   6.35020916
_cell_angle_alpha   99.29245081
_cell_angle_beta   115.37426869
_cell_angle_gamma   113.18780935
_symmetry_Int_Tables_number   1
_chemical_formula_structural   Rb3NbO4
_chemical_formula_sum   'Rb3 Nb1 O4'
_cell_volume   184.82589070
_cell_formula_units_Z   1
loop_
 _symmetry_equiv_pos_site_id
 _symmetry_equiv_pos_as_xyz
  1  'x, y, z'
loop_
 _atom_site_type_symbol
 _atom_site_label
 _atom_site_symmetry_multiplicity
 _atom_site_fract_x
 _atom_site_fract_y
 _atom_site_fract_z
 _atom_site_occupancy
  Nb  Nb0  1  0.00300302  0.50300302  0.50000000  1
  O  O1  1  0.27686755  0.49435781  0.44918491  1
  O  O2  1  0.04517290  0.82768264  0.55081509  1
  O  O3  1  0.04251110  0.42725404  0.78450628  1
  O  O4  1  0.64274776  0.25800482  0.21549372  1
  Rb  Rb5  1  0.52300397  0.28003312  0.74344531  1
  Rb  Rb6  1  0.08110789  0.08110789  0.00000000  1
  Rb  Rb7  1  0.53658781  0.77955866  0.25655469  1
