# generated using pymatgen
data_Tl2SeO4
_symmetry_space_group_name_H-M   'P 1'
_cell_length_a   6.23330000
_cell_length_b   7.82800000
_cell_length_c   10.53300000
_cell_angle_alpha   90.00000000
_cell_angle_beta   90.00000000
_cell_angle_gamma   90.00000000
_symmetry_Int_Tables_number   1
_chemical_formula_structural   Tl2SeO4
_chemical_formula_sum   'Tl8 Se4 O16'
_cell_volume   513.95007119
_cell_formula_units_Z   4
loop_
 _symmetry_equiv_pos_site_id
 _symmetry_equiv_pos_as_xyz
  1  'x, y, z'
loop_
 _atom_site_type_symbol
 _atom_site_label
 _atom_site_symmetry_multiplicity
 _atom_site_fract_x
 _atom_site_fract_y
 _atom_site_fract_z
 _atom_site_occupancy
  Tl  Tl0  1  0.47339000  0.74345000  0.28367000  1.0
  Tl  Tl1  1  0.97339000  0.75655000  0.71633000  1.0
  Tl  Tl2  1  0.97902000  0.92229000  0.08030000  1.0
  Tl  Tl3  1  0.02661000  0.25655000  0.78367000  1.0
  Tl  Tl4  1  0.52098000  0.07771000  0.58030000  1.0
  Tl  Tl5  1  0.52661000  0.24345000  0.21633000  1.0
  Tl  Tl6  1  0.02098000  0.42229000  0.41970000  1.0
  Tl  Tl7  1  0.47902000  0.57771000  0.91970000  1.0
  Se  Se8  1  0.99120000  0.45670000  0.08328000  1.0
  Se  Se9  1  0.49120000  0.04330000  0.91672000  1.0
  Se  Se10  1  0.00880000  0.95670000  0.41672000  1.0
  Se  Se11  1  0.50880000  0.54330000  0.58328000  1.0
  O  O12  1  0.42300000  0.24500000  0.94490000  1.0
  O  O13  1  0.29700000  0.52800000  0.67770000  1.0
  O  O14  1  0.45300000  0.45110000  0.44630000  1.0
  O  O15  1  0.70300000  0.02800000  0.82230000  1.0
  O  O16  1  0.21700000  0.04800000  0.34940000  1.0
  O  O17  1  0.04700000  0.54890000  0.94630000  1.0
  O  O18  1  0.07700000  0.75500000  0.44490000  1.0
  O  O19  1  0.54700000  0.95110000  0.05370000  1.0
  O  O20  1  0.20300000  0.47200000  0.17770000  1.0
  O  O21  1  0.79700000  0.97200000  0.32230000  1.0
  O  O22  1  0.28300000  0.95200000  0.84940000  1.0
  O  O23  1  0.92300000  0.25500000  0.05510000  1.0
  O  O24  1  0.71700000  0.45200000  0.65060000  1.0
  O  O25  1  0.57700000  0.74500000  0.55510000  1.0
  O  O26  1  0.95300000  0.04890000  0.55370000  1.0
  O  O27  1  0.78300000  0.54800000  0.15060000  1.0
