# generated using pymatgen
data_CsLi(B3O5)2
_symmetry_space_group_name_H-M   'P 1'
_cell_length_a   8.75648169
_cell_length_b   8.75648169
_cell_length_c   8.75648169
_cell_angle_alpha   105.59269006
_cell_angle_beta   105.78206045
_cell_angle_gamma   117.33705174
_symmetry_Int_Tables_number   1
_chemical_formula_structural   CsLi(B3O5)2
_chemical_formula_sum   'Cs2 Li2 B12 O20'
_cell_volume   509.45233720
_cell_formula_units_Z   2
loop_
 _symmetry_equiv_pos_site_id
 _symmetry_equiv_pos_as_xyz
  1  'x, y, z'
loop_
 _atom_site_type_symbol
 _atom_site_label
 _atom_site_symmetry_multiplicity
 _atom_site_fract_x
 _atom_site_fract_y
 _atom_site_fract_z
 _atom_site_occupancy
  B  B0  1  0.54747200  0.71403100  0.63254200  1
  B  B1  1  0.41851100  0.78596900  0.83344100  1
  B  B2  1  0.08148900  0.41493000  0.86745800  1
  B  B3  1  0.95252800  0.08507000  0.66655900  1
  B  B4  1  0.25000000  0.77351700  0.02351700  1
  B  B5  1  0.75000000  0.72648300  0.47648300  1
  B  B6  1  0.22585200  0.25000000  0.97585200  1
  B  B7  1  0.27414800  0.75000000  0.52414800  1
  B  B8  1  0.21393300  0.04653000  0.13127000  1
  B  B9  1  0.58474000  0.45347000  0.16740300  1
  B  B10  1  0.91526000  0.58266300  0.36873000  1
  B  B11  1  0.28606700  0.91733700  0.33259700  1
  Cs  Cs12  1  0.87314600  0.12314600  0.25000000  1
  Cs  Cs13  1  0.62685400  0.37685400  0.75000000  1
  Li  Li14  1  0.37135500  0.62135500  0.25000000  1
  Li  Li15  1  0.12864500  0.87864500  0.75000000  1
  O  O16  1  0.18827900  0.18246200  0.10820800  1
  O  O17  1  0.42574600  0.31753800  0.00581700  1
  O  O18  1  0.07425400  0.58007100  0.39179200  1
  O  O19  1  0.31172100  0.91992900  0.49418300  1
  O  O20  1  0.20035600  0.40925700  0.00185300  1
  O  O21  1  0.09259600  0.09074300  0.79109900  1
  O  O22  1  0.40740400  0.69850300  0.49814700  1
  O  O23  1  0.29964400  0.80149700  0.70890100  1
  O  O24  1  0.42032800  0.81051400  0.99447100  1
  O  O25  1  0.68395700  0.68948600  0.60981400  1
  O  O26  1  0.81604300  0.92585700  0.50552900  1
  O  O27  1  0.07967200  0.57414300  0.89018600  1
  O  O28  1  0.58960100  0.59213600  0.29216100  1
  O  O29  1  0.20002500  0.90786400  0.99746500  1
  O  O30  1  0.29997500  0.79744000  0.20783900  1
  O  O31  1  0.91039900  0.70256000  0.50253500  1
  O  O32  1  0.25000000  0.04844700  0.29844700  1
  O  O33  1  0.75000000  0.45155300  0.20155300  1
  O  O34  1  0.54982700  0.75000000  0.79982700  1
  O  O35  1  0.95017300  0.25000000  0.70017300  1
