# generated using pymatgen
data_Mg2B4H15
_symmetry_space_group_name_H-M   'P 1'
_cell_length_a   7.95632151
_cell_length_b   8.03198392
_cell_length_c   10.15940295
_cell_angle_alpha   87.54581486
_cell_angle_beta   88.38922650
_cell_angle_gamma   89.67694656
_symmetry_Int_Tables_number   1
_chemical_formula_structural   Mg2B4H15
_chemical_formula_sum   'Mg4 B8 H30'
_cell_volume   648.37891964
_cell_formula_units_Z   2
loop_
 _symmetry_equiv_pos_site_id
 _symmetry_equiv_pos_as_xyz
  1  'x, y, z'
loop_
 _atom_site_type_symbol
 _atom_site_label
 _atom_site_symmetry_multiplicity
 _atom_site_fract_x
 _atom_site_fract_y
 _atom_site_fract_z
 _atom_site_occupancy
  Mg  Mg0  1  0.53639400  0.89102500  0.20618200  1
  Mg  Mg1  1  0.96741700  0.62125700  0.79658600  1
  Mg  Mg2  1  0.02811400  0.06942600  0.00278800  1
  Mg  Mg3  1  0.47872700  0.71731500  0.52760800  1
  B  B4  1  0.72949400  0.64978000  0.64768800  1
  B  B5  1  0.89895000  0.82425900  0.94891900  1
  B  B6  1  0.00618400  0.34508400  0.91022000  1
  B  B7  1  0.79094500  0.91919700  0.08113900  1
  B  B8  1  0.29393800  0.00226500  0.08875900  1
  B  B9  1  0.58718100  0.98569000  0.43209600  1
  B  B10  1  0.41127900  0.62809300  0.30333400  1
  B  B11  1  0.22442000  0.65873400  0.65970500  1
  H  H12  1  0.01308900  0.22145500  0.84222500  1
  H  H13  1  0.77633900  0.81313400  0.17160800  1
  H  H14  1  0.39525600  0.09781900  0.13210300  1
  H  H15  1  0.65415000  0.85380100  0.39863800  1
  H  H16  1  0.29990000  0.54967600  0.25846200  1
  H  H17  1  0.20550500  0.72041100  0.76780800  1
  H  H18  1  0.74437400  0.52897600  0.72432300  1
  H  H19  1  0.12607100  0.43145100  0.87454000  1
  H  H20  1  0.33485600  0.85512600  0.08814000  1
  H  H21  1  0.65519000  0.97089700  0.03909700  1
  H  H22  1  0.47554100  0.54746800  0.39564300  1
  H  H23  1  0.51615000  0.05863800  0.33942100  1
  H  H24  1  0.85228900  0.74017500  0.63359700  1
  H  H25  1  0.23407200  0.77608400  0.57818300  1
  H  H26  1  0.01641400  0.73271200  0.98341500  1
  H  H27  1  0.86657200  0.40587700  0.89456600  1
  H  H28  1  0.95648800  0.91804300  0.85686600  1
  H  H29  1  0.27833200  0.04632000  0.97200400  1
  H  H30  1  0.78848000  0.74609800  0.89799100  1
  H  H31  1  0.01935600  0.31811100  0.02983600  1
  H  H32  1  0.16639800  0.00981800  0.15967000  1
  H  H33  1  0.84766700  0.04116400  0.13753000  1
  H  H34  1  0.47128900  0.96159100  0.51443000  1
  H  H35  1  0.52918700  0.64689300  0.22230000  1
  H  H36  1  0.10960700  0.57035600  0.62645200  1
  H  H37  1  0.61472800  0.73569600  0.69280200  1
  H  H38  1  0.69368800  0.07232500  0.47458900  1
  H  H39  1  0.35220600  0.76294600  0.33831700  1
  H  H40  1  0.70421500  0.59206700  0.53997300  1
  H  H41  1  0.34955100  0.56877900  0.66742200  1
