# generated using pymatgen
data_Cs3BAsP
_symmetry_space_group_name_H-M   'P 1'
_cell_length_a   7.08696449
_cell_length_b   7.08696449
_cell_length_c   10.07694025
_cell_angle_alpha   75.68402468
_cell_angle_beta   75.68402468
_cell_angle_gamma   89.18208963
_symmetry_Int_Tables_number   1
_chemical_formula_structural   Cs3BAsP
_chemical_formula_sum   'Cs6 B2 As2 P2'
_cell_volume   474.57765768
_cell_formula_units_Z   2
loop_
 _symmetry_equiv_pos_site_id
 _symmetry_equiv_pos_as_xyz
  1  'x, y, z'
loop_
 _atom_site_type_symbol
 _atom_site_label
 _atom_site_symmetry_multiplicity
 _atom_site_fract_x
 _atom_site_fract_y
 _atom_site_fract_z
 _atom_site_occupancy
  As  As0  1  0.15729400  0.60294500  0.14500000  1
  As  As1  1  0.60294500  0.15729400  0.64500000  1
  B  B2  1  0.29265200  0.71298900  0.25086700  1
  B  B3  1  0.71298900  0.29265200  0.75086700  1
  Cs  Cs4  1  0.25833600  0.15284300  0.01951400  1
  Cs  Cs5  1  0.84729600  0.74176400  0.48023800  1
  Cs  Cs6  1  0.74176400  0.84729600  0.98023800  1
  Cs  Cs7  1  0.15284300  0.25833600  0.51951400  1
  Cs  Cs8  1  0.65550500  0.34488000  0.24972500  1
  Cs  Cs9  1  0.34488000  0.65550500  0.74972500  1
  P  P10  1  0.41802900  0.81844800  0.34841500  1
  P  P11  1  0.81844800  0.41802900  0.84841500  1
