# generated using pymatgen
data_Ba2B6H4O13
_symmetry_space_group_name_H-M   'P 1'
_cell_length_a   6.97048700
_cell_length_b   8.80480400
_cell_length_c   8.60615873
_cell_angle_alpha   90.00000000
_cell_angle_beta   101.14432888
_cell_angle_gamma   90.00000000
_symmetry_Int_Tables_number   1
_chemical_formula_structural   Ba2B6H4O13
_chemical_formula_sum   'Ba4 B12 H8 O26'
_cell_volume   518.23251890
_cell_formula_units_Z   2
loop_
 _symmetry_equiv_pos_site_id
 _symmetry_equiv_pos_as_xyz
  1  'x, y, z'
loop_
 _atom_site_type_symbol
 _atom_site_label
 _atom_site_symmetry_multiplicity
 _atom_site_fract_x
 _atom_site_fract_y
 _atom_site_fract_z
 _atom_site_occupancy
  Ba  Ba0  1  0.80383900  0.43207600  0.71678000  1
  Ba  Ba1  1  0.19616100  0.93207600  0.28322000  1
  Ba  Ba2  1  0.75891700  0.57274400  0.23507100  1
  Ba  Ba3  1  0.24108300  0.07274400  0.76492900  1
  B  B4  1  0.54109000  0.72556600  0.54627500  1
  B  B5  1  0.45891000  0.22556600  0.45372500  1
  B  B6  1  0.36067000  0.50153400  0.40816100  1
  B  B7  1  0.63933000  0.00153400  0.59183900  1
  B  B8  1  0.10183700  0.29803100  0.36577800  1
  B  B9  1  0.89816300  0.79803100  0.63422200  1
  B  B10  1  0.07348300  0.28828900  0.05939400  1
  B  B11  1  0.92651700  0.78828900  0.94060600  1
  B  B12  1  0.86196400  0.06847700  0.95022800  1
  B  B13  1  0.13803600  0.56847700  0.04977200  1
  B  B14  1  0.63859100  0.89594900  0.03694500  1
  B  B15  1  0.36140900  0.39594900  0.96305500  1
  H  H16  1  0.55465400  0.70153000  0.78824700  1
  H  H17  1  0.44534600  0.20153000  0.21175300  1
  H  H18  1  0.82296700  0.24030900  0.38575200  1
  H  H19  1  0.17703300  0.74030900  0.61424800  1
  H  H20  1  0.68622300  0.97117400  0.26533200  1
  H  H21  1  0.31377700  0.47117400  0.73466800  1
  H  H22  1  0.38375400  0.77474600  0.01239200  1
  H  H23  1  0.61624600  0.27474600  0.98760800  1
  O  O24  1  0.48577000  0.65344000  0.68793800  1
  O  O25  1  0.51423000  0.15344000  0.31206200  1
  O  O26  1  0.74679100  0.70384200  0.53430300  1
  O  O27  1  0.25320900  0.20384200  0.46569700  1
  O  O28  1  0.41263000  0.65456300  0.40588900  1
  O  O29  1  0.58737000  0.15456300  0.59411100  1
  O  O30  1  0.50601700  0.39360400  0.45356000  1
  O  O31  1  0.49398300  0.89360400  0.54644000  1
  O  O32  1  0.16976700  0.45967500  0.36016600  1
  O  O33  1  0.83023300  0.95967500  0.63983400  1
  O  O34  1  0.92276200  0.31144100  0.43713500  1
  O  O35  1  0.07723800  0.81144100  0.56286500  1
  O  O36  1  0.04346900  0.22714100  0.20834200  1
  O  O37  1  0.95653100  0.72714100  0.79165800  1
  O  O38  1  0.00831100  0.44947600  0.03636800  1
  O  O39  1  0.99168900  0.94947600  0.96363200  1
  O  O40  1  0.93735300  0.20901200  0.92383600  1
  O  O41  1  0.06264700  0.70901200  0.07616400  1
  O  O42  1  0.67104900  0.04834400  0.96498900  1
  O  O43  1  0.32895100  0.54834400  0.03501100  1
  O  O44  1  0.72061400  0.77146500  0.95856500  1
  O  O45  1  0.27938600  0.27146500  0.04143500  1
  O  O46  1  0.42457000  0.88148000  0.01950000  1
  O  O47  1  0.57543000  0.38148000  0.98050000  1
  O  O48  1  0.74196900  0.89250100  0.20710400  1
  O  O49  1  0.25803100  0.39250100  0.79289600  1
