# generated using pymatgen
data_Al5BO9
_symmetry_space_group_name_H-M   'P 1'
_cell_length_a   5.67000000
_cell_length_b   7.68700000
_cell_length_c   8.02260868
_cell_angle_alpha   90.00000000
_cell_angle_beta   110.69396606
_cell_angle_gamma   90.00000000
_symmetry_Int_Tables_number   1
_chemical_formula_structural   Al5BO9
_chemical_formula_sum   'Al10 B2 O18'
_cell_volume   327.10760157
_cell_formula_units_Z   2
loop_
 _symmetry_equiv_pos_site_id
 _symmetry_equiv_pos_as_xyz
  1  'x, y, z'
loop_
 _atom_site_type_symbol
 _atom_site_label
 _atom_site_symmetry_multiplicity
 _atom_site_fract_x
 _atom_site_fract_y
 _atom_site_fract_z
 _atom_site_occupancy
  Al  Al0  1  0.63190000  0.50000000  0.76760000  1.0
  Al  Al1  1  0.70330000  0.33420000  0.40660000  1.0
  Al  Al2  1  0.29670000  0.83420000  0.59340000  1.0
  Al  Al3  1  0.44380000  0.18220000  0.88760000  1.0
  Al  Al4  1  0.55620000  0.68220000  0.11240000  1.0
  Al  Al5  1  0.25560000  0.18580000  0.51120000  1.0
  Al  Al6  1  0.74440000  0.68580000  0.48880000  1.0
  Al  Al7  1  0.86430000  0.00000000  0.23240000  1.0
  Al  Al8  1  0.13570000  0.50000000  0.76760000  1.0
  Al  Al9  1  0.36810000  0.00000000  0.23240000  1.0
  B  B10  1  0.01560000  0.72100000  0.03120000  1.0
  B  B11  1  0.98440000  0.22100000  0.96880000  1.0
  O  O12  1  0.80880000  0.43450000  0.61760000  1.0
  O  O13  1  0.04630000  0.09230000  0.09260000  1.0
  O  O14  1  0.95370000  0.59230000  0.90740000  1.0
  O  O15  1  0.54570000  0.07080000  0.09140000  1.0
  O  O16  1  0.45430000  0.57080000  0.90860000  1.0
  O  O17  1  0.33300000  0.36950000  0.66600000  1.0
  O  O18  1  0.66700000  0.86950000  0.33400000  1.0
  O  O19  1  0.16270000  0.28450000  0.90340000  1.0
  O  O20  1  0.19120000  0.93450000  0.38240000  1.0
  O  O21  1  0.35130000  0.03910000  0.70260000  1.0
  O  O22  1  0.25930000  0.78450000  0.09660000  1.0
  O  O23  1  0.74070000  0.28450000  0.90340000  1.0
  O  O24  1  0.83730000  0.78450000  0.09660000  1.0
  O  O25  1  0.55260000  0.70020000  0.61920000  1.0
  O  O26  1  0.93340000  0.20020000  0.38080000  1.0
  O  O27  1  0.44740000  0.20020000  0.38080000  1.0
  O  O28  1  0.06660000  0.70020000  0.61920000  1.0
  O  O29  1  0.64870000  0.53910000  0.29740000  1.0
