# generated using pymatgen
data_Li2GePbS4
_symmetry_space_group_name_H-M   'P 1'
_cell_length_a   6.10099473
_cell_length_b   6.10099473
_cell_length_c   6.10099473
_cell_angle_alpha   99.19709218
_cell_angle_beta   114.83991962
_cell_angle_gamma   114.83991962
_symmetry_Int_Tables_number   1
_chemical_formula_structural   Li2GePbS4
_chemical_formula_sum   'Li2 Ge1 Pb1 S4'
_cell_volume   170.71237400
_cell_formula_units_Z   1
loop_
 _symmetry_equiv_pos_site_id
 _symmetry_equiv_pos_as_xyz
  1  'x, y, z'
loop_
 _atom_site_type_symbol
 _atom_site_label
 _atom_site_symmetry_multiplicity
 _atom_site_fract_x
 _atom_site_fract_y
 _atom_site_fract_z
 _atom_site_occupancy
  Ge  Ge0  1  -0.00000000  0.50000000  0.50000000  1
  Li  Li1  1  0.50000000  0.75000000  0.25000000  1
  Li  Li2  1  0.50000000  0.25000000  0.75000000  1
  Pb  Pb3  1  0.00000000  0.00000000  0.00000000  1
  S  S4  1  1.00000000  0.53419675  0.14018125  1
  S  S5  1  0.60598450  0.46580325  0.46580325  1
  S  S6  1  0.39401550  0.85981875  0.85981875  1
  S  S7  1  1.00000000  0.14018125  0.53419675  1
