# generated using pymatgen
data_Al2S3
_symmetry_space_group_name_H-M   'P 1'
_cell_length_a   6.49100005
_cell_length_b   6.49100005
_cell_length_c   17.16900000
_cell_angle_alpha   90.00000000
_cell_angle_beta   90.00000000
_cell_angle_gamma   120.00000000
_symmetry_Int_Tables_number   1
_chemical_formula_structural   Al2S3
_chemical_formula_sum   'Al12 S18'
_cell_volume   626.46794973
_cell_formula_units_Z   6
loop_
 _symmetry_equiv_pos_site_id
 _symmetry_equiv_pos_as_xyz
  1  'x, y, z'
loop_
 _atom_site_type_symbol
 _atom_site_label
 _atom_site_symmetry_multiplicity
 _atom_site_fract_x
 _atom_site_fract_y
 _atom_site_fract_z
 _atom_site_occupancy
  Al  Al0  1  0.65972000  0.01156000  0.54948300  1.0
  Al  Al1  1  0.69862000  0.00389000  0.18385300  1.0
  Al  Al2  1  0.00389000  0.30527000  0.01718633  1.0
  Al  Al3  1  0.98844000  0.64816000  0.88281633  1.0
  Al  Al4  1  0.01156000  0.35184000  0.38281633  1.0
  Al  Al5  1  0.99611000  0.69473000  0.51718633  1.0
  Al  Al6  1  0.64816000  0.65972000  0.71614967  1.0
  Al  Al7  1  0.69473000  0.69862000  0.35051967  1.0
  Al  Al8  1  0.30527000  0.30138000  0.85051967  1.0
  Al  Al9  1  0.30138000  0.99611000  0.68385300  1.0
  Al  Al10  1  0.35184000  0.34028000  0.21614967  1.0
  Al  Al11  1  0.34028000  0.98844000  0.04948300  1.0
  S  S12  1  0.34166000  0.33875000  0.34800000  1.0
  S  S13  1  0.66452000  0.95329000  0.03952300  1.0
  S  S14  1  0.04671000  0.71123000  0.37285633  1.0
  S  S15  1  0.64992000  0.69387000  0.49649300  1.0
  S  S16  1  0.33548000  0.04671000  0.53952300  1.0
  S  S17  1  0.65834000  0.66125000  0.84800000  1.0
  S  S18  1  0.66125000  0.00291000  0.68133333  1.0
  S  S19  1  0.30613000  0.95605000  0.82982633  1.0
  S  S20  1  0.04395000  0.35008000  0.16315967  1.0
  S  S21  1  0.95605000  0.64992000  0.66315967  1.0
  S  S22  1  0.33875000  0.99709000  0.18133333  1.0
  S  S23  1  0.69387000  0.04395000  0.32982633  1.0
  S  S24  1  0.71123000  0.66452000  0.20618967  1.0
  S  S25  1  0.99709000  0.65834000  0.01466667  1.0
  S  S26  1  0.35008000  0.30613000  0.99649300  1.0
  S  S27  1  0.95329000  0.28877000  0.87285633  1.0
  S  S28  1  0.28877000  0.33548000  0.70618967  1.0
  S  S29  1  0.00291000  0.34166000  0.51466667  1.0
