# generated using pymatgen
data_Si(Bi3O5)4
_symmetry_space_group_name_H-M   'P 1'
_cell_length_a   8.75209275
_cell_length_b   8.75209275
_cell_length_c   8.75209275
_cell_angle_alpha   109.47122063
_cell_angle_beta   109.47122063
_cell_angle_gamma   109.47122063
_symmetry_Int_Tables_number   1
_chemical_formula_structural   Si(Bi3O5)4
_chemical_formula_sum   'Si1 Bi12 O20'
_cell_volume   516.07621526
_cell_formula_units_Z   1
loop_
 _symmetry_equiv_pos_site_id
 _symmetry_equiv_pos_as_xyz
  1  'x, y, z'
loop_
 _atom_site_type_symbol
 _atom_site_label
 _atom_site_symmetry_multiplicity
 _atom_site_fract_x
 _atom_site_fract_y
 _atom_site_fract_z
 _atom_site_occupancy
  Bi  Bi0  1  0.66612330  0.50585339  0.80886777  1
  Bi  Bi1  1  0.30301437  0.49414661  0.16026990  1
  Bi  Bi2  1  0.69698563  0.85725553  0.19113223  1
  Bi  Bi3  1  0.19113223  0.69698563  0.85725553  1
  Bi  Bi4  1  0.49414661  0.16026990  0.30301437  1
  Bi  Bi5  1  0.85725553  0.19113223  0.69698563  1
  Bi  Bi6  1  0.80886777  0.66612330  0.50585339  1
  Bi  Bi7  1  0.50585339  0.80886777  0.66612330  1
  Bi  Bi8  1  0.16026990  0.30301437  0.49414661  1
  Bi  Bi9  1  0.14274447  0.83973009  0.33387670  1
  Bi  Bi10  1  0.83973009  0.33387670  0.14274447  1
  Bi  Bi11  1  0.33387670  0.14274447  0.83973009  1
  O  O12  1  0.18871213  0.18871213  0.18871213  1
  O  O13  1  1.00000000  1.00000000  0.81128787  1
  O  O14  1  1.00000000  0.81128787  1.00000000  1
  O  O15  1  0.81128787  0.00000000  0.00000000  1
  O  O16  1  0.60286502  0.60286502  0.60286502  1
  O  O17  1  1.00000000  -0.00000000  0.39713498  1
  O  O18  1  1.00000000  0.39713498  1.00000000  1
  O  O19  1  0.39713498  1.00000000  1.00000000  1
  O  O20  1  0.25746794  0.61350771  0.37999324  1
  O  O21  1  0.76648553  0.38649229  0.64396023  1
  O  O22  1  0.23351447  0.87747470  0.62000676  1
  O  O23  1  0.62000676  0.23351447  0.87747470  1
  O  O24  1  0.38649229  0.64396023  0.76648553  1
  O  O25  1  0.74253206  0.12252530  0.35603977  1
  O  O26  1  0.35603977  0.74253206  0.12252530  1
  O  O27  1  0.12252530  0.35603977  0.74253206  1
  O  O28  1  0.64396023  0.76648553  0.38649229  1
  O  O29  1  0.61350771  0.37999324  0.25746794  1
  O  O30  1  0.37999324  0.25746794  0.61350771  1
  O  O31  1  0.87747470  0.62000676  0.23351447  1
  Si  Si32  1  0.00000000  0.00000000  0.00000000  1
