# generated using pymatgen
data_PNO
_symmetry_space_group_name_H-M   'P 1'
_cell_length_a   4.52413000
_cell_length_b   4.83154400
_cell_length_c   4.83280632
_cell_angle_alpha   60.00864001
_cell_angle_beta   62.09126879
_cell_angle_gamma   90.00000000
_symmetry_Int_Tables_number   1
_chemical_formula_structural   PNO
_chemical_formula_sum   'P2 N2 O2'
_cell_volume   76.98153501
_cell_formula_units_Z   2
loop_
 _symmetry_equiv_pos_site_id
 _symmetry_equiv_pos_as_xyz
  1  'x, y, z'
loop_
 _atom_site_type_symbol
 _atom_site_label
 _atom_site_symmetry_multiplicity
 _atom_site_fract_x
 _atom_site_fract_y
 _atom_site_fract_z
 _atom_site_occupancy
  P  P4  1  0.13951700  0.38951700  0.72096600  1.0
  P  P5  1  0.36048300  0.11048300  0.27903400  1.0
  N  N0  1  0.10923100  0.25000000  0.50000000  1.0
  N  N1  1  0.39076900  0.75000000  0.50000000  1.0
  O  O2  1  0.75000000  0.37300000  0.00000000  1.0
  O  O3  1  0.25000000  0.12700000  0.00000000  1.0
