# generated using pymatgen
data_Li8SiO6
_symmetry_space_group_name_H-M   'P 1'
_cell_length_a   5.42430000
_cell_length_b   5.42430000
_cell_length_c   10.62600000
_cell_angle_alpha   90.00000000
_cell_angle_beta   90.00000000
_cell_angle_gamma   120.00000000
_symmetry_Int_Tables_number   1
_chemical_formula_structural   Li8SiO6
_chemical_formula_sum   'Li16 Si2 O12'
_cell_volume   270.76208211
_cell_formula_units_Z   2
loop_
 _symmetry_equiv_pos_site_id
 _symmetry_equiv_pos_as_xyz
  1  'x, y, z'
loop_
 _atom_site_type_symbol
 _atom_site_label
 _atom_site_symmetry_multiplicity
 _atom_site_fract_x
 _atom_site_fract_y
 _atom_site_fract_z
 _atom_site_occupancy
  Li  Li0  1  0.00000000  0.30820000  0.27000000  1.0
  Li  Li1  1  0.69180000  0.00000000  0.77000000  1.0
  Li  Li2  1  0.33333333  0.66666667  0.41280000  1.0
  Li  Li3  1  0.66666667  0.33333333  0.91280000  1.0
  Li  Li4  1  0.33333333  0.66666667  0.91280000  1.0
  Li  Li5  1  0.66666667  0.33333333  0.41280000  1.0
  Li  Li6  1  0.39730000  0.00000000  0.62840000  1.0
  Li  Li7  1  0.39730000  0.39730000  0.12840000  1.0
  Li  Li8  1  0.00000000  0.60270000  0.12840000  1.0
  Li  Li9  1  0.00000000  0.39730000  0.62840000  1.0
  Li  Li10  1  0.60270000  0.60270000  0.62840000  1.0
  Li  Li11  1  0.60270000  0.00000000  0.12840000  1.0
  Li  Li12  1  0.30820000  0.00000000  0.27000000  1.0
  Li  Li13  1  0.69180000  0.69180000  0.27000000  1.0
  Li  Li14  1  0.00000000  0.69180000  0.77000000  1.0
  Li  Li15  1  0.30820000  0.30820000  0.77000000  1.0
  Si  Si16  1  0.00000000  0.00000000  0.50000000  1.0
  Si  Si17  1  0.00000000  0.00000000  0.00000000  1.0
  O  O18  1  0.00000000  0.28690000  0.45350000  1.0
  O  O19  1  0.71310000  0.71310000  0.45350000  1.0
  O  O20  1  0.00000000  0.00000000  0.15660000  1.0
  O  O21  1  0.00000000  0.00000000  0.65660000  1.0
  O  O22  1  0.33333333  0.66666667  0.21920000  1.0
  O  O23  1  0.66666667  0.33333333  0.71920000  1.0
  O  O24  1  0.33333333  0.66666667  0.71920000  1.0
  O  O25  1  0.71310000  0.00000000  0.95350000  1.0
  O  O26  1  0.28690000  0.00000000  0.45350000  1.0
  O  O27  1  0.28690000  0.28690000  0.95350000  1.0
  O  O28  1  0.00000000  0.71310000  0.95350000  1.0
  O  O29  1  0.66666667  0.33333333  0.21920000  1.0
