# generated using pymatgen
data_Tl3SbS3
_symmetry_space_group_name_H-M   'P 1'
_cell_length_a   6.11972646
_cell_length_b   6.11972646
_cell_length_c   6.11972646
_cell_angle_alpha   104.36121163
_cell_angle_beta   104.36121163
_cell_angle_gamma   104.36121163
_symmetry_Int_Tables_number   1
_chemical_formula_structural   Tl3SbS3
_chemical_formula_sum   'Tl3 Sb1 S3'
_cell_volume   203.05250764
_cell_formula_units_Z   1
loop_
 _symmetry_equiv_pos_site_id
 _symmetry_equiv_pos_as_xyz
  1  'x, y, z'
loop_
 _atom_site_type_symbol
 _atom_site_label
 _atom_site_symmetry_multiplicity
 _atom_site_fract_x
 _atom_site_fract_y
 _atom_site_fract_z
 _atom_site_occupancy
  S  S0  1  0.03438485  0.41956151  0.03438485  1
  S  S1  1  0.03438485  0.03438485  0.41956151  1
  S  S2  1  0.41956151  0.03438485  0.03438485  1
  Sb  Sb3  1  0.00740419  0.00740419  0.00740419  1
  Tl  Tl4  1  0.43867643  0.43867643  0.82741272  1
  Tl  Tl5  1  0.82741272  0.43867643  0.43867643  1
  Tl  Tl6  1  0.43867643  0.82741272  0.43867643  1
