# generated using pymatgen
data_MgGeP2
_symmetry_space_group_name_H-M   'P 1'
_cell_length_a   5.75909832
_cell_length_b   5.75946876
_cell_length_c   6.69246361
_cell_angle_alpha   115.47549373
_cell_angle_beta   115.47153430
_cell_angle_gamma   90.00397480
_symmetry_Int_Tables_number   1
_chemical_formula_structural   MgGeP2
_chemical_formula_sum   'Mg2 Ge2 P4'
_cell_volume   176.19666172
_cell_formula_units_Z   2
loop_
 _symmetry_equiv_pos_site_id
 _symmetry_equiv_pos_as_xyz
  1  'x, y, z'
loop_
 _atom_site_type_symbol
 _atom_site_label
 _atom_site_symmetry_multiplicity
 _atom_site_fract_x
 _atom_site_fract_y
 _atom_site_fract_z
 _atom_site_occupancy
  Mg  Mg0  1  0.00018024  0.99991966  0.00008303  1
  Mg  Mg1  1  0.74983543  0.24948462  0.49987620  1
  Ge  Ge2  1  0.49996672  0.50012649  0.99994653  1
  Ge  Ge3  1  0.24993168  0.75010665  0.49996720  1
  P  P4  1  0.37496206  0.84444134  0.25000012  1
  P  P5  1  0.87497647  0.40567172  0.25006437  1
  P  P6  1  0.59449645  0.62507293  0.74993078  1
  P  P7  1  0.15564993  0.12517559  0.75013076  1
