# generated using pymatgen
data_Y3AlO6
_symmetry_space_group_name_H-M   'P 1'
_cell_length_a   5.35291795
_cell_length_b   7.06622852
_cell_length_c   7.06622852
_cell_angle_alpha   102.81019096
_cell_angle_beta   90.00000000
_cell_angle_gamma   90.00000000
_symmetry_Int_Tables_number   1
_chemical_formula_structural   Y3AlO6
_chemical_formula_sum   'Y6 Al2 O12'
_cell_volume   260.62707130
_cell_formula_units_Z   2
loop_
 _symmetry_equiv_pos_site_id
 _symmetry_equiv_pos_as_xyz
  1  'x, y, z'
loop_
 _atom_site_type_symbol
 _atom_site_label
 _atom_site_symmetry_multiplicity
 _atom_site_fract_x
 _atom_site_fract_y
 _atom_site_fract_z
 _atom_site_occupancy
  Al  Al0  1  0.00602052  0.19446622  0.80553378  1
  Al  Al1  1  0.50602052  0.80553378  0.19446622  1
  O  O2  1  0.19827515  0.67649150  0.64461337  1
  O  O3  1  0.69827515  0.64461337  0.67649150  1
  O  O4  1  0.17017648  0.41512520  0.89094676  1
  O  O5  1  0.67017648  0.89094676  0.41512520  1
  O  O6  1  0.13094634  0.04515705  0.95484295  1
  O  O7  1  0.67867548  0.21372732  0.78627268  1
  O  O8  1  0.17867548  0.78627268  0.21372732  1
  O  O9  1  0.63094634  0.95484295  0.04515705  1
  O  O10  1  0.17017648  0.10905324  0.58487480  1
  O  O11  1  0.67017648  0.58487480  0.10905324  1
  O  O12  1  0.69827515  0.32350850  0.35538663  1
  O  O13  1  0.19827515  0.35538663  0.32350850  1
  Y  Y14  1  0.46940228  0.91337464  0.70136994  1
  Y  Y15  1  0.96940228  0.70136994  0.91337464  1
  Y  Y16  1  0.42469883  0.39682590  0.60317410  1
  Y  Y17  1  0.92469883  0.60317410  0.39682590  1
  Y  Y18  1  0.96940228  0.08662536  0.29863006  1
  Y  Y19  1  0.46940228  0.29863006  0.08662536  1
