# generated using pymatgen
data_TlSb(PS3)2
_symmetry_space_group_name_H-M   'P 1'
_cell_length_a   6.78761800
_cell_length_b   7.88197000
_cell_length_c   9.87880785
_cell_angle_alpha   90.00000000
_cell_angle_beta   91.95681499
_cell_angle_gamma   90.00000000
_symmetry_Int_Tables_number   1
_chemical_formula_structural   TlSb(PS3)2
_chemical_formula_sum   'Tl2 Sb2 P4 S12'
_cell_volume   528.20605418
_cell_formula_units_Z   2
loop_
 _symmetry_equiv_pos_site_id
 _symmetry_equiv_pos_as_xyz
  1  'x, y, z'
loop_
 _atom_site_type_symbol
 _atom_site_label
 _atom_site_symmetry_multiplicity
 _atom_site_fract_x
 _atom_site_fract_y
 _atom_site_fract_z
 _atom_site_occupancy
  Tl  Tl0  1  0.19071700  0.21491300  0.00655200  1
  Tl  Tl1  1  0.80928300  0.71491300  0.99344800  1
  Sb  Sb2  1  0.31433500  0.50714000  0.48073500  1
  Sb  Sb3  1  0.68566500  0.00714000  0.51926500  1
  P  P4  1  0.29676800  0.70217700  0.19660100  1
  P  P5  1  0.70323200  0.20217700  0.80339900  1
  P  P6  1  0.19697000  0.91964500  0.32763300  1
  P  P7  1  0.80303000  0.41964500  0.67236700  1
  S  S8  1  0.41052300  0.10627400  0.32877000  1
  S  S9  1  0.58947700  0.60627400  0.67123000  1
  S  S10  1  0.09162600  0.51998200  0.23226400  1
  S  S11  1  0.90837400  0.01998200  0.76773600  1
  S  S12  1  0.17415500  0.80598400  0.51763200  1
  S  S13  1  0.82584500  0.30598400  0.48236800  1
  S  S14  1  0.54939400  0.62651600  0.30378500  1
  S  S15  1  0.45060600  0.12651600  0.69621500  1
  S  S16  1  0.06187200  0.50709800  0.74694900  1
  S  S17  1  0.93812800  0.00709800  0.25305100  1
  S  S18  1  0.32583400  0.78128100  0.00884400  1
  S  S19  1  0.67416600  0.28128100  0.99115600  1
