# generated using pymatgen
data_KSrVO4
_symmetry_space_group_name_H-M   'P 1'
_cell_length_a   5.91056293
_cell_length_b   7.54706955
_cell_length_c   10.07530209
_cell_angle_alpha   90.00000000
_cell_angle_beta   90.00000000
_cell_angle_gamma   90.00000000
_symmetry_Int_Tables_number   1
_chemical_formula_structural   KSrVO4
_chemical_formula_sum   'K4 Sr4 V4 O16'
_cell_volume   449.43332780
_cell_formula_units_Z   4
loop_
 _symmetry_equiv_pos_site_id
 _symmetry_equiv_pos_as_xyz
  1  'x, y, z'
loop_
 _atom_site_type_symbol
 _atom_site_label
 _atom_site_symmetry_multiplicity
 _atom_site_fract_x
 _atom_site_fract_y
 _atom_site_fract_z
 _atom_site_occupancy
  K  K0  1  0.48556474  0.09177683  0.57802659  1.0
  K  K1  1  0.51443526  0.59177683  0.92197341  1.0
  K  K2  1  0.01443526  0.90822317  0.07802659  1.0
  K  K3  1  0.98556474  0.40822317  0.42197341  1.0
  Sr  Sr4  1  0.98113807  0.24942786  0.80142833  1.0
  Sr  Sr5  1  0.48113807  0.25057214  0.19857167  1.0
  Sr  Sr6  1  0.51886193  0.75057214  0.30142833  1.0
  Sr  Sr7  1  0.01886193  0.74942786  0.69857167  1.0
  V  V8  1  0.48591708  0.52507899  0.58355881  1.0
  V  V9  1  0.01408292  0.47492101  0.08355881  1.0
  V  V10  1  0.98591708  0.97492101  0.41644119  1.0
  V  V11  1  0.51408292  0.02507899  0.91644119  1.0
  O  O12  1  0.50626732  0.93113792  0.07400931  1.0
  O  O13  1  0.24338033  0.55570315  0.17205237  1.0
  O  O14  1  0.25661967  0.44429685  0.67205237  1.0
  O  O15  1  0.06154898  0.25210046  0.06334206  1.0
  O  O16  1  0.74338033  0.94429685  0.82794763  1.0
  O  O17  1  0.56154898  0.24789954  0.93665794  1.0
  O  O18  1  0.76258018  0.51815099  0.16793580  1.0
  O  O19  1  0.26258018  0.98184901  0.83206420  1.0
  O  O20  1  0.99373268  0.06886208  0.57400931  1.0
  O  O21  1  0.75661967  0.05570315  0.32794763  1.0
  O  O22  1  0.00626732  0.56886208  0.92599069  1.0
  O  O23  1  0.49373268  0.43113792  0.42599069  1.0
  O  O24  1  0.23741982  0.01815099  0.33206420  1.0
  O  O25  1  0.43845102  0.74789954  0.56334206  1.0
  O  O26  1  0.73741982  0.48184901  0.66793580  1.0
  O  O27  1  0.93845102  0.75210046  0.43665794  1.0
