# generated using pymatgen
data_PNO
_symmetry_space_group_name_H-M   'P 1'
_cell_length_a   4.61999048
_cell_length_b   4.64153422
_cell_length_c   4.64153422
_cell_angle_alpha   90.14159808
_cell_angle_beta   117.57814939
_cell_angle_gamma   117.57814939
_symmetry_Int_Tables_number   1
_chemical_formula_structural   PNO
_chemical_formula_sum   'P2 N2 O2'
_cell_volume   75.16334012
_cell_formula_units_Z   2
loop_
 _symmetry_equiv_pos_site_id
 _symmetry_equiv_pos_as_xyz
  1  'x, y, z'
loop_
 _atom_site_type_symbol
 _atom_site_label
 _atom_site_symmetry_multiplicity
 _atom_site_fract_x
 _atom_site_fract_y
 _atom_site_fract_z
 _atom_site_occupancy
  N  N0  1  0.75036731  0.25713527  0.61745538  1
  N  N1  1  0.25036731  0.61745538  0.25713527  1
  O  O2  1  0.24979978  0.11691039  0.99922248  1
  O  O3  1  0.74979978  0.99922248  0.11691039  1
  P  P4  1  0.99983291  0.26959040  0.98968608  1
  P  P5  1  0.49983291  0.98968608  0.26959040  1
