# generated using pymatgen
data_Fe(SiP)4
_symmetry_space_group_name_H-M   'P 1'
_cell_length_a   4.86847905
_cell_length_b   5.53769270
_cell_length_c   6.05465878
_cell_angle_alpha   85.36806417
_cell_angle_beta   111.62368336
_cell_angle_gamma   109.58996162
_symmetry_Int_Tables_number   1
_chemical_formula_structural   Fe(SiP)4
_chemical_formula_sum   'Fe1 Si4 P4'
_cell_volume   142.79220690
_cell_formula_units_Z   1
loop_
 _symmetry_equiv_pos_site_id
 _symmetry_equiv_pos_as_xyz
  1  'x, y, z'
loop_
 _atom_site_type_symbol
 _atom_site_label
 _atom_site_symmetry_multiplicity
 _atom_site_fract_x
 _atom_site_fract_y
 _atom_site_fract_z
 _atom_site_occupancy
  Fe  Fe0  1  0.99960651  0.00011742  0.99997359  1
  Si  Si1  1  0.68036704  0.22296477  0.78293535  1
  Si  Si2  1  0.23821603  0.66168274  0.56893287  1
  Si  Si3  1  0.34590716  0.40075354  0.11476583  1
  Si  Si4  1  0.84662108  0.02866912  0.30282103  1
  P  P5  1  0.15641867  0.98853608  0.69074727  1
  P  P6  1  0.63346752  0.60012670  0.88201470  1
  P  P7  1  0.76350044  0.35801198  0.43540413  1
  P  P8  1  0.32909455  0.78083966  0.23160622  1
