# generated using pymatgen
data_KMg(PO3)3
_symmetry_space_group_name_H-M   'P 1'
_cell_length_a   6.60500000
_cell_length_b   6.60500000
_cell_length_c   9.77200000
_cell_angle_alpha   90.00000000
_cell_angle_beta   90.00000000
_cell_angle_gamma   120.00000000
_symmetry_Int_Tables_number   1
_chemical_formula_structural   KMg(PO3)3
_chemical_formula_sum   'K2 Mg2 P6 O18'
_cell_volume   369.19833509
_cell_formula_units_Z   2
loop_
 _symmetry_equiv_pos_site_id
 _symmetry_equiv_pos_as_xyz
  1  'x, y, z'
loop_
 _atom_site_type_symbol
 _atom_site_label
 _atom_site_symmetry_multiplicity
 _atom_site_fract_x
 _atom_site_fract_y
 _atom_site_fract_z
 _atom_site_occupancy
  K  K0  1  0.33333333  0.66666667  0.50000000  1.0
  K  K1  1  0.33333333  0.66666667  0.00000000  1.0
  Mg  Mg2  1  0.00000000  0.00000000  0.50000000  1.0
  Mg  Mg3  1  0.00000000  0.00000000  0.00000000  1.0
  P  P4  1  0.72366667  0.11033333  0.75000000  1.0
  P  P5  1  0.72366667  0.61333334  0.25000000  1.0
  P  P6  1  0.38666666  0.11033333  0.25000000  1.0
  P  P7  1  0.88966667  0.27633333  0.25000000  1.0
  P  P8  1  0.88966667  0.61333334  0.75000000  1.0
  P  P9  1  0.38666666  0.27633333  0.75000000  1.0
  O  O10  1  0.74666667  0.01033333  0.62500000  1.0
  O  O11  1  0.98966667  0.25333333  0.37500000  1.0
  O  O12  1  0.98966667  0.73633334  0.62500000  1.0
  O  O13  1  0.26366666  0.25333333  0.62500000  1.0
  O  O14  1  0.98966667  0.73633334  0.87500000  1.0
  O  O15  1  0.26366666  0.25333333  0.87500000  1.0
  O  O16  1  0.74666667  0.01033333  0.87500000  1.0
  O  O17  1  0.26366666  0.01033333  0.12500000  1.0
  O  O18  1  0.74666667  0.73633334  0.12500000  1.0
  O  O19  1  0.74666667  0.73633334  0.37500000  1.0
  O  O20  1  0.91466667  0.52533333  0.25000000  1.0
  O  O21  1  0.61066666  0.08533333  0.25000000  1.0
  O  O22  1  0.47466667  0.38933334  0.25000000  1.0
  O  O23  1  0.47466667  0.08533333  0.75000000  1.0
  O  O24  1  0.61066666  0.52533333  0.75000000  1.0
  O  O25  1  0.91466667  0.38933334  0.75000000  1.0
  O  O26  1  0.98966667  0.25333333  0.12500000  1.0
  O  O27  1  0.26366666  0.01033333  0.37500000  1.0
