# generated using pymatgen
data_LiGe2N3
_symmetry_space_group_name_H-M   'P 1'
_cell_length_a   5.04899466
_cell_length_b   5.51281700
_cell_length_c   5.51281700
_cell_angle_alpha   119.99460591
_cell_angle_beta   90.00000000
_cell_angle_gamma   90.00000000
_symmetry_Int_Tables_number   1
_chemical_formula_structural   LiGe2N3
_chemical_formula_sum   'Li2 Ge4 N6'
_cell_volume   132.89428294
_cell_formula_units_Z   2
loop_
 _symmetry_equiv_pos_site_id
 _symmetry_equiv_pos_as_xyz
  1  'x, y, z'
loop_
 _atom_site_type_symbol
 _atom_site_label
 _atom_site_symmetry_multiplicity
 _atom_site_fract_x
 _atom_site_fract_y
 _atom_site_fract_z
 _atom_site_occupancy
  Ge  Ge0  1  0.50801249  0.00375485  0.33030498  1
  Ge  Ge1  1  0.50801249  0.33030498  0.00375485  1
  Ge  Ge2  1  0.00801249  0.99624515  0.66969501  1
  Ge  Ge3  1  0.00801249  0.66969501  0.99624515  1
  Li  Li4  1  0.50374870  0.65861810  0.65861810  1
  Li  Li5  1  0.00374870  0.34138190  0.34138190  1
  N  N6  1  0.87690350  0.96196772  0.33554562  1
  N  N7  1  0.87690350  0.33554562  0.96196772  1
  N  N8  1  0.37690350  0.03803228  0.66445438  1
  N  N9  1  0.37690350  0.66445438  0.03803228  1
  N  N10  1  0.90542132  0.70072472  0.70072472  1
  N  N11  1  0.40542132  0.29927528  0.29927528  1
