# generated using pymatgen
data_Bi2TeO5
_symmetry_space_group_name_H-M   'P 1'
_cell_length_a   5.52300000
_cell_length_b   8.68141765
_cell_length_c   11.60200000
_cell_angle_alpha   90.00000000
_cell_angle_beta   90.00000000
_cell_angle_gamma   108.54764937
_symmetry_Int_Tables_number   1
_chemical_formula_structural   Bi2TeO5
_chemical_formula_sum   'Bi8 Te4 O20'
_cell_volume   527.39271120
_cell_formula_units_Z   4
loop_
 _symmetry_equiv_pos_site_id
 _symmetry_equiv_pos_as_xyz
  1  'x, y, z'
loop_
 _atom_site_type_symbol
 _atom_site_label
 _atom_site_symmetry_multiplicity
 _atom_site_fract_x
 _atom_site_fract_y
 _atom_site_fract_z
 _atom_site_occupancy
  Bi  Bi0  1  0.77120000  0.50000000  0.37740000  1.0
  Bi  Bi1  1  0.27120000  0.50000000  0.62260000  1.0
  Bi  Bi2  1  0.25630000  0.50000000  0.12470000  1.0
  Bi  Bi3  1  0.75630000  0.50000000  0.87530000  1.0
  Bi  Bi4  1  0.89120000  0.82900000  0.60810000  1.0
  Bi  Bi5  1  0.06220000  0.17100000  0.39190000  1.0
  Bi  Bi6  1  0.39120000  0.82900000  0.39190000  1.0
  Bi  Bi7  1  0.56220000  0.17100000  0.60810000  1.0
  Te  Te28  1  0.41960000  0.83920000  0.86640000  1.0
  Te  Te29  1  0.58040000  0.16080000  0.13360000  1.0
  Te  Te30  1  0.91960000  0.83920000  0.13360000  1.0
  Te  Te31  1  0.08040000  0.16080000  0.86640000  1.0
  O  O8  1  0.11900000  0.67800000  0.80000000  1.0
  O  O9  1  0.44100000  0.32200000  0.20000000  1.0
  O  O10  1  0.61900000  0.67800000  0.20000000  1.0
  O  O11  1  0.94100000  0.32200000  0.80000000  1.0
  O  O12  1  0.50200000  0.68400000  0.52900000  1.0
  O  O13  1  0.81800000  0.31600000  0.47100000  1.0
  O  O14  1  0.00200000  0.68400000  0.47100000  1.0
  O  O15  1  0.31800000  0.31600000  0.52900000  1.0
  O  O16  1  0.08000000  0.50000000  0.29400000  1.0
  O  O17  1  0.58000000  0.50000000  0.70600000  1.0
  O  O18  1  0.56000000  0.70200000  0.92900000  1.0
  O  O19  1  0.85800000  0.29800000  0.07100000  1.0
  O  O20  1  0.18200000  0.08400000  0.73100000  1.0
  O  O21  1  0.09800000  0.91600000  0.26900000  1.0
  O  O22  1  0.68200000  0.08400000  0.26900000  1.0
  O  O23  1  0.59800000  0.91600000  0.73100000  1.0
  O  O24  1  0.30400000  0.00000000  0.50000000  1.0
  O  O25  1  0.80400000  0.00000000  0.50000000  1.0
  O  O26  1  0.35800000  0.29800000  0.92900000  1.0
  O  O27  1  0.06000000  0.70200000  0.07100000  1.0
