# generated using pymatgen
data_KAl11O17
_symmetry_space_group_name_H-M   'P 1'
_cell_length_a   5.64626901
_cell_length_b   5.64681933
_cell_length_c   11.89538987
_cell_angle_alpha   76.27149947
_cell_angle_beta   76.27098373
_cell_angle_gamma   60.00322378
_symmetry_Int_Tables_number   1
_chemical_formula_structural   KAl11O17
_chemical_formula_sum   'K1 Al11 O17'
_cell_volume   315.89020415
_cell_formula_units_Z   1
loop_
 _symmetry_equiv_pos_site_id
 _symmetry_equiv_pos_as_xyz
  1  'x, y, z'
loop_
 _atom_site_type_symbol
 _atom_site_label
 _atom_site_symmetry_multiplicity
 _atom_site_fract_x
 _atom_site_fract_y
 _atom_site_fract_z
 _atom_site_occupancy
  K  K11  1  0.82928000  0.82933400  0.51210600  1.0
  Al  Al0  1  0.09725700  0.59190100  0.21358500  1.0
  Al  Al1  1  0.99983100  0.99984200  0.00049600  1.0
  Al  Al2  1  0.59184600  0.09729300  0.21358000  1.0
  Al  Al3  1  0.09728100  0.09729300  0.21358000  1.0
  Al  Al4  1  0.45033300  0.45026300  0.64907100  1.0
  Al  Al5  1  0.34993050  0.34994600  0.95019300  1.0
  Al  Al6  1  0.54992450  0.54999700  0.35015400  1.0
  Al  Al7  1  0.64977550  0.64977100  0.05067800  1.0
  Al  Al8  1  0.90377900  0.90383700  0.78742600  1.0
  Al  Al9  1  0.40495800  0.90383700  0.78742600  1.0
  Al  Al10  1  0.90379400  0.40498300  0.78742900  1.0
  O  O12  1  0.29670150  0.29658600  0.11001100  1.0
  O  O13  1  0.09449850  0.09459200  0.71641100  1.0
  O  O14  1  0.81041200  0.81013800  0.09944200  1.0
  O  O15  1  0.19016200  0.71950900  0.90016700  1.0
  O  O16  1  0.59926300  0.59928200  0.70979300  1.0
  O  O17  1  0.40168950  0.90699400  0.28962700  1.0
  O  O18  1  0.09166200  0.59928200  0.70979300  1.0
  O  O19  1  0.71954200  0.19025400  0.90020700  1.0
  O  O20  1  0.28000800  0.81013800  0.09944200  1.0
  O  O21  1  0.49990700  0.49993100  0.50025500  1.0
  O  O22  1  0.90706300  0.40161100  0.28962100  1.0
  O  O23  1  0.40170500  0.40161100  0.28962100  1.0
  O  O24  1  0.59926950  0.09168600  0.70977500  1.0
  O  O25  1  0.81024050  0.28005000  0.09946900  1.0
  O  O26  1  0.18999700  0.19025400  0.90020700  1.0
  O  O27  1  0.70338550  0.70351100  0.88971800  1.0
  O  O28  1  0.90559000  0.90551800  0.28330200  1.0
