# generated using pymatgen
data_SnPS3
_symmetry_space_group_name_H-M   'P 1'
_cell_length_a   6.59656698
_cell_length_b   7.57141576
_cell_length_c   11.84081197
_cell_angle_alpha   90.00000000
_cell_angle_beta   123.75802513
_cell_angle_gamma   90.00000000
_symmetry_Int_Tables_number   1
_chemical_formula_structural   SnPS3
_chemical_formula_sum   'Sn4 P4 S12'
_cell_volume   491.67970928
_cell_formula_units_Z   4
loop_
 _symmetry_equiv_pos_site_id
 _symmetry_equiv_pos_as_xyz
  1  'x, y, z'
loop_
 _atom_site_type_symbol
 _atom_site_label
 _atom_site_symmetry_multiplicity
 _atom_site_fract_x
 _atom_site_fract_y
 _atom_site_fract_z
 _atom_site_occupancy
  Sn  Sn0  1  0.14040455  0.13618921  0.44254334  1
  Sn  Sn1  1  0.14040455  0.86381079  0.94254334  1
  Sn  Sn2  1  0.71528691  0.39582960  0.95950780  1
  Sn  Sn3  1  0.71528691  0.60417040  0.45950780  1
  P  P4  1  0.50126479  0.64450796  0.68859325  1
  P  P5  1  0.50126479  0.35549204  0.18859325  1
  P  P6  1  0.51158141  0.86327948  0.81808586  1
  P  P7  1  0.51158141  0.13672052  0.31808586  1
  S  S8  1  0.85762675  0.43097844  0.28687936  1
  S  S9  1  0.85762675  0.56902156  0.78687936  1
  S  S10  1  0.31582503  0.55092731  0.20970660  1
  S  S11  1  0.31582503  0.44907269  0.70970660  1
  S  S12  1  0.65941641  0.24803580  0.50310275  1
  S  S13  1  0.65941641  0.75196420  0.00310275  1
  S  S14  1  0.16732394  0.04749543  0.23304054  1
  S  S15  1  0.16732394  0.95250457  0.73304054  1
  S  S16  1  0.72084295  0.95037712  0.30687491  1
  S  S17  1  0.72084295  0.04962288  0.80687491  1
  S  S18  1  0.34892525  0.26786932  0.99836459  1
  S  S19  1  0.34892525  0.73213068  0.49836459  1
