# generated using pymatgen
data_Mg2VN3
_symmetry_space_group_name_H-M   'P 1'
_cell_length_a   5.04314691
_cell_length_b   5.72470141
_cell_length_c   5.72470141
_cell_angle_alpha   119.13451582
_cell_angle_beta   90.00000000
_cell_angle_gamma   90.00000000
_symmetry_Int_Tables_number   1
_chemical_formula_structural   Mg2VN3
_chemical_formula_sum   'Mg4 V2 N6'
_cell_volume   144.36430078
_cell_formula_units_Z   2
loop_
 _symmetry_equiv_pos_site_id
 _symmetry_equiv_pos_as_xyz
  1  'x, y, z'
loop_
 _atom_site_type_symbol
 _atom_site_label
 _atom_site_symmetry_multiplicity
 _atom_site_fract_x
 _atom_site_fract_y
 _atom_site_fract_z
 _atom_site_occupancy
  Mg  Mg0  1  0.02338277  0.66934746  0.99939627  1
  Mg  Mg1  1  0.02338277  0.99939627  0.66934746  1
  Mg  Mg2  1  0.52338277  0.33065254  0.00060373  1
  Mg  Mg3  1  0.52338277  0.00060373  0.33065254  1
  N  N4  1  0.60571288  0.66753490  0.96533216  1
  N  N5  1  0.60571288  0.96533216  0.66753490  1
  N  N6  1  0.10571288  0.33246510  0.03466784  1
  N  N7  1  0.10571288  0.03466784  0.33246510  1
  N  N8  1  0.65188478  0.36331991  0.36331991  1
  N  N9  1  0.15188478  0.63668009  0.63668009  1
  V  V10  1  0.01792192  0.33623538  0.33623538  1
  V  V11  1  0.51792192  0.66376462  0.66376462  1
