# generated using pymatgen
data_TaZn2N3
_symmetry_space_group_name_H-M   'P 1'
_cell_length_a   5.39301875
_cell_length_b   5.68387195
_cell_length_c   5.68387195
_cell_angle_alpha   119.33351351
_cell_angle_beta   90.00000000
_cell_angle_gamma   90.00000000
_symmetry_Int_Tables_number   1
_chemical_formula_structural   TaZn2N3
_chemical_formula_sum   'Ta2 Zn4 N6'
_cell_volume   151.88987813
_cell_formula_units_Z   2
loop_
 _symmetry_equiv_pos_site_id
 _symmetry_equiv_pos_as_xyz
  1  'x, y, z'
loop_
 _atom_site_type_symbol
 _atom_site_label
 _atom_site_symmetry_multiplicity
 _atom_site_fract_x
 _atom_site_fract_y
 _atom_site_fract_z
 _atom_site_occupancy
  N  N0  1  0.87460117  0.01036328  0.32969233  1
  N  N1  1  0.87460117  0.32969233  0.01036328  1
  N  N2  1  0.37460117  0.98963672  0.67030767  1
  N  N3  1  0.37460117  0.67030767  0.98963672  1
  N  N4  1  0.85595713  0.65427040  0.65427040  1
  N  N5  1  0.35595713  0.34572960  0.34572960  1
  Ta  Ta6  1  0.48771560  0.66978296  0.66978296  1
  Ta  Ta7  1  0.98771560  0.33021704  0.33021704  1
  Zn  Zn8  1  0.49756347  0.98967929  0.33347502  1
  Zn  Zn9  1  0.49756347  0.33347502  0.98967929  1
  Zn  Zn10  1  0.99756347  0.01032071  0.66652498  1
  Zn  Zn11  1  0.99756347  0.66652498  0.01032071  1
