# generated using pymatgen
data_Mg2TaN3
_symmetry_space_group_name_H-M   'P 1'
_cell_length_a   5.27029013
_cell_length_b   5.87376705
_cell_length_c   5.87376705
_cell_angle_alpha   119.26380960
_cell_angle_beta   90.00000000
_cell_angle_gamma   90.00000000
_symmetry_Int_Tables_number   1
_chemical_formula_structural   Mg2TaN3
_chemical_formula_sum   'Mg4 Ta2 N6'
_cell_volume   158.62541496
_cell_formula_units_Z   2
loop_
 _symmetry_equiv_pos_site_id
 _symmetry_equiv_pos_as_xyz
  1  'x, y, z'
loop_
 _atom_site_type_symbol
 _atom_site_label
 _atom_site_symmetry_multiplicity
 _atom_site_fract_x
 _atom_site_fract_y
 _atom_site_fract_z
 _atom_site_occupancy
  Mg  Mg0  1  0.01373158  0.66749494  0.00672644  1
  Mg  Mg1  1  0.01373158  0.00672644  0.66749494  1
  Mg  Mg2  1  0.51373158  0.33250506  0.99327356  1
  Mg  Mg3  1  0.51373158  0.99327356  0.33250506  1
  N  N4  1  0.61536338  0.66907685  0.98096528  1
  N  N5  1  0.61536338  0.98096528  0.66907685  1
  N  N6  1  0.11536338  0.33092315  0.01903472  1
  N  N7  1  0.11536338  0.01903472  0.33092315  1
  N  N8  1  0.63879196  0.35000307  0.35000307  1
  N  N9  1  0.13879196  0.64999693  0.64999693  1
  Ta  Ta10  1  0.01501810  0.33144255  0.33144255  1
  Ta  Ta11  1  0.51501810  0.66855745  0.66855745  1
