# generated using pymatgen
data_K4PH5S3O16
_symmetry_space_group_name_H-M   'P 1'
_cell_length_a   7.21699965
_cell_length_b   7.21700000
_cell_length_c   7.21700015
_cell_angle_alpha   71.57000384
_cell_angle_beta   86.20000233
_cell_angle_gamma   88.28000286
_symmetry_Int_Tables_number   1
_chemical_formula_structural   K4PH5S3O16
_chemical_formula_sum   'K4 P1 H5 S3 O16'
_cell_volume   355.81815674
_cell_formula_units_Z   1
loop_
 _symmetry_equiv_pos_site_id
 _symmetry_equiv_pos_as_xyz
  1  'x, y, z'
loop_
 _atom_site_type_symbol
 _atom_site_label
 _atom_site_symmetry_multiplicity
 _atom_site_fract_x
 _atom_site_fract_y
 _atom_site_fract_z
 _atom_site_occupancy
  K  K0  1  0.83981000  0.66578000  0.81251000  1.0
  K  K1  1  0.53635000  0.22763000  0.73933000  1.0
  K  K2  1  0.46365000  0.77237000  0.26067000  1.0
  K  K3  1  0.16019000  0.33422000  0.18749000  1.0
  P  P4  1  0.03794000  0.19936000  0.72252000  1.0
  H  H5  1  0.00000000  0.50000000  0.50000000  1.0
  H  H6  1  0.88900000  0.93590000  0.98090000  1.0
  H  H7  1  0.73170000  0.05270000  0.42020000  1.0
  H  H8  1  0.26830000  0.94730000  0.57980000  1.0
  H  H9  1  0.11100000  0.06410000  0.01910000  1.0
  S  S10  1  0.96206000  0.80064000  0.27748000  1.0
  S  S11  1  0.62811000  0.27386000  0.22204000  1.0
  S  S12  1  0.37189000  0.72614000  0.77796000  1.0
  O  O13  1  0.93860000  0.38380000  0.65510000  1.0
  O  O14  1  0.88960000  0.05420000  0.79630000  1.0
  O  O15  1  0.84410000  0.83240000  0.43220000  1.0
  O  O16  1  0.84560000  0.80730000  0.11630000  1.0
  O  O17  1  0.79350000  0.33860000  0.10420000  1.0
  O  O18  1  0.69240000  0.15240000  0.41710000  1.0
  O  O19  1  0.48180000  0.84220000  0.84980000  1.0
  O  O20  1  0.51930000  0.41850000  0.26780000  1.0
  O  O21  1  0.48070000  0.58150000  0.73220000  1.0
  O  O22  1  0.51820000  0.15780000  0.15020000  1.0
  O  O23  1  0.30760000  0.84760000  0.58290000  1.0
  O  O24  1  0.20650000  0.66140000  0.89580000  1.0
  O  O25  1  0.15440000  0.19270000  0.88370000  1.0
  O  O26  1  0.15590000  0.16760000  0.56780000  1.0
  O  O27  1  0.11040000  0.94580000  0.20370000  1.0
  O  O28  1  0.06140000  0.61620000  0.34490000  1.0
