# generated using pymatgen
data_SrSi7N10
_symmetry_space_group_name_H-M   'P 1'
_cell_length_a   6.83504655
_cell_length_b   6.72778808
_cell_length_c   9.60918669
_cell_angle_alpha   90.00000000
_cell_angle_beta   106.14581606
_cell_angle_gamma   90.00000000
_symmetry_Int_Tables_number   1
_chemical_formula_structural   SrSi7N10
_chemical_formula_sum   'Sr2 Si14 N20'
_cell_volume   424.44712353
_cell_formula_units_Z   2
loop_
 _symmetry_equiv_pos_site_id
 _symmetry_equiv_pos_as_xyz
  1  'x, y, z'
loop_
 _atom_site_type_symbol
 _atom_site_label
 _atom_site_symmetry_multiplicity
 _atom_site_fract_x
 _atom_site_fract_y
 _atom_site_fract_z
 _atom_site_occupancy
  Sr  Sr0  1  0.04882433  0.05197048  0.33493259  1
  Sr  Sr1  1  0.04882433  0.94802952  0.83493259  1
  Si  Si2  1  0.46084143  0.97394189  0.17170492  1
  Si  Si3  1  0.89085580  0.60497916  0.42622357  1
  Si  Si4  1  0.70361120  0.61920918  0.11599569  1
  Si  Si5  1  0.64601376  0.97329585  0.48358516  1
  Si  Si6  1  0.15042707  0.37666581  0.69058593  1
  Si  Si7  1  0.51582738  0.62942847  0.81220849  1
  Si  Si8  1  0.33387825  0.36503018  0.00677513  1
  Si  Si9  1  0.70361120  0.38079082  0.61599569  1
  Si  Si10  1  0.33387825  0.63496982  0.50677513  1
  Si  Si11  1  0.51582738  0.37057153  0.31220849  1
  Si  Si12  1  0.89085580  0.39502084  0.92622357  1
  Si  Si13  1  0.46084143  0.02605811  0.67170492  1
  Si  Si14  1  0.15042707  0.62333419  0.19058593  1
  Si  Si15  1  0.64601376  0.02670415  0.98358516  1
  N  N16  1  0.84429012  0.83391509  0.47920664  1
  N  N17  1  0.68113555  0.87015938  0.13538292  1
  N  N18  1  0.11203002  0.61754589  0.36673169  1
  N  N19  1  0.43133871  0.13141775  0.02244402  1
  N  N20  1  0.92082603  0.57770857  0.06134739  1
  N  N21  1  0.25357883  0.84298308  0.16911895  1
  N  N22  1  0.71312696  0.50140509  0.27555880  1
  N  N23  1  0.29575115  0.41516691  0.17529575  1
  N  N24  1  0.92082603  0.42229143  0.56134739  1
  N  N25  1  0.25357883  0.15701692  0.66911895  1
  N  N26  1  0.71312696  0.49859491  0.77555880  1
  N  N27  1  0.11203002  0.38245411  0.86673169  1
  N  N28  1  0.84429012  0.16608491  0.97920664  1
  N  N29  1  0.55427522  0.11740028  0.32760989  1
  N  N30  1  0.68113555  0.12984062  0.63538292  1
  N  N31  1  0.55427522  0.88259972  0.82760989  1
  N  N32  1  0.50107019  0.46191307  0.47598845  1
  N  N33  1  0.29575115  0.58483309  0.67529575  1
  N  N34  1  0.50107019  0.53808693  0.97598845  1
  N  N35  1  0.43133871  0.86858225  0.52244402  1
