# generated using pymatgen
data_TiTlWO5F
_symmetry_space_group_name_H-M   'P 1'
_cell_length_a   7.33644020
_cell_length_b   7.33644020
_cell_length_c   7.33644020
_cell_angle_alpha   91.35806751
_cell_angle_beta   118.72340469
_cell_angle_gamma   119.71708795
_symmetry_Int_Tables_number   1
_chemical_formula_structural   TiTlWO5F
_chemical_formula_sum   'Ti2 Tl2 W2 O10 F2'
_cell_volume   282.39573094
_cell_formula_units_Z   2
loop_
 _symmetry_equiv_pos_site_id
 _symmetry_equiv_pos_as_xyz
  1  'x, y, z'
loop_
 _atom_site_type_symbol
 _atom_site_label
 _atom_site_symmetry_multiplicity
 _atom_site_fract_x
 _atom_site_fract_y
 _atom_site_fract_z
 _atom_site_occupancy
  F  F0  1  0.25830825  0.43140625  0.18971450  1
  F  F1  1  0.75830825  0.56859375  0.82690200  1
  O  O2  1  0.25840575  0.80625225  0.19643600  1
  O  O3  1  0.89018375  0.43803025  0.19643600  1
  O  O4  1  0.25676900  0.81637200  0.57314100  1
  O  O5  1  0.75840575  0.56196975  0.45215350  1
  O  O6  1  0.39018375  0.19374775  0.45215350  1
  O  O7  1  0.62597300  0.81264200  0.56784500  1
  O  O8  1  0.25520300  0.44187200  0.56784500  1
  O  O9  1  0.75676900  0.18362800  0.44039700  1
  O  O10  1  0.12597300  0.55812800  0.81333100  1
  O  O11  1  0.75520300  0.18735800  0.81333100  1
  Ti  Ti12  1  0.00062900  0.48480000  0.98542900  1
  Ti  Ti13  1  0.50062900  0.51520000  0.51582900  1
  Tl  Tl14  1  0.15761125  0.10390425  0.76151550  1
  Tl  Tl15  1  0.65761125  0.89609575  0.05370700  1
  W  W16  1  0.48691800  1.00000000  0.48691800  1
  W  W17  1  0.98691800  0.50000000  0.48691800  1
