# generated using pymatgen
data_KBePO4
_symmetry_space_group_name_H-M   'P 1'
_cell_length_a   8.34400000
_cell_length_b   8.50600000
_cell_length_c   4.93700000
_cell_angle_alpha   90.00000000
_cell_angle_beta   90.00000000
_cell_angle_gamma   90.00000000
_symmetry_Int_Tables_number   1
_chemical_formula_structural   KBePO4
_chemical_formula_sum   'K4 Be4 P4 O16'
_cell_volume   350.39895397
_cell_formula_units_Z   4
loop_
 _symmetry_equiv_pos_site_id
 _symmetry_equiv_pos_as_xyz
  1  'x, y, z'
loop_
 _atom_site_type_symbol
 _atom_site_label
 _atom_site_symmetry_multiplicity
 _atom_site_fract_x
 _atom_site_fract_y
 _atom_site_fract_z
 _atom_site_occupancy
  K  K0  1  0.49800000  0.29080000  0.25000000  1.0
  K  K1  1  0.50200000  0.70920000  0.75000000  1.0
  K  K2  1  0.00200000  0.79080000  0.75000000  1.0
  K  K3  1  0.99800000  0.20920000  0.25000000  1.0
  Be  Be4  1  0.81690000  0.41090000  0.75600000  1.0
  Be  Be5  1  0.18310000  0.58910000  0.25600000  1.0
  Be  Be6  1  0.68310000  0.91090000  0.25600000  1.0
  Be  Be7  1  0.31690000  0.08910000  0.75600000  1.0
  P  P8  1  0.69100000  0.08150000  0.73610000  1.0
  P  P9  1  0.30900000  0.91850000  0.23610000  1.0
  P  P10  1  0.80900000  0.58150000  0.23610000  1.0
  P  P11  1  0.19100000  0.41850000  0.73610000  1.0
  O  O12  1  0.76000000  0.23860000  0.64500000  1.0
  O  O13  1  0.24000000  0.76140000  0.14500000  1.0
  O  O14  1  0.74000000  0.73860000  0.14500000  1.0
  O  O15  1  0.26000000  0.26140000  0.64500000  1.0
  O  O16  1  0.25190000  0.45890000  0.02300000  1.0
  O  O17  1  0.74810000  0.54110000  0.52300000  1.0
  O  O18  1  0.24810000  0.95890000  0.52300000  1.0
  O  O19  1  0.75190000  0.04110000  0.02300000  1.0
  O  O20  1  0.75160000  0.45280000  0.03900000  1.0
  O  O21  1  0.24840000  0.54720000  0.53900000  1.0
  O  O22  1  0.74840000  0.95280000  0.53900000  1.0
  O  O23  1  0.25160000  0.04720000  0.03900000  1.0
  O  O24  1  0.00900000  0.40720000  0.73600000  1.0
  O  O25  1  0.99100000  0.59280000  0.23600000  1.0
  O  O26  1  0.49100000  0.90720000  0.23600000  1.0
  O  O27  1  0.50900000  0.09280000  0.73600000  1.0
