# generated using pymatgen
data_TaTl3(SeS)2
_symmetry_space_group_name_H-M   'P 1'
_cell_length_a   6.87989131
_cell_length_b   6.87989131
_cell_length_c   6.92310646
_cell_angle_alpha   109.47184382
_cell_angle_beta   109.47184382
_cell_angle_gamma   109.21568216
_symmetry_Int_Tables_number   1
_chemical_formula_structural   TaTl3(SeS)2
_chemical_formula_sum   'Ta1 Tl3 Se2 S2'
_cell_volume   253.04374361
_cell_formula_units_Z   1
loop_
 _symmetry_equiv_pos_site_id
 _symmetry_equiv_pos_as_xyz
  1  'x, y, z'
loop_
 _atom_site_type_symbol
 _atom_site_label
 _atom_site_symmetry_multiplicity
 _atom_site_fract_x
 _atom_site_fract_y
 _atom_site_fract_z
 _atom_site_occupancy
  S  S0  1  0.66525300  0.99852300  1.00000000  1
  S  S1  1  0.99852300  0.66525300  1.00000000  1
  Se  Se2  1  0.34996100  0.34996100  0.35048700  1
  Se  Se3  1  0.99947400  0.99947400  0.64951300  1
  Ta  Ta4  1  0.99610100  0.99610100  0.00000000  1
  Tl  Tl5  1  0.49438500  0.99438500  0.50000000  1
  Tl  Tl6  1  0.99438500  0.49438500  0.50000000  1
  Tl  Tl7  1  0.50191700  0.50191700  0.00000000  1
