# generated using pymatgen
data_Cd4P6SN12
_symmetry_space_group_name_H-M   'P 1'
_cell_length_a   7.41173812
_cell_length_b   7.41173812
_cell_length_c   7.41173812
_cell_angle_alpha   109.47122063
_cell_angle_beta   109.47122063
_cell_angle_gamma   109.47122063
_symmetry_Int_Tables_number   1
_chemical_formula_structural   Cd4P6SN12
_chemical_formula_sum   'Cd4 P6 S1 N12'
_cell_volume   313.42837238
_cell_formula_units_Z   1
loop_
 _symmetry_equiv_pos_site_id
 _symmetry_equiv_pos_as_xyz
  1  'x, y, z'
loop_
 _atom_site_type_symbol
 _atom_site_label
 _atom_site_symmetry_multiplicity
 _atom_site_fract_x
 _atom_site_fract_y
 _atom_site_fract_z
 _atom_site_occupancy
  Cd  Cd0  1  0.00000000  0.33620100  0.00000000  1
  Cd  Cd1  1  0.66379900  0.66379900  0.66379900  1
  Cd  Cd2  1  0.00000000  1.00000000  0.33620100  1
  Cd  Cd3  1  0.33620100  1.00000000  1.00000000  1
  N  N4  1  0.28516800  0.57497400  1.00000000  1
  N  N5  1  0.28516800  0.00000000  0.57497400  1
  N  N6  1  0.57497400  0.28516800  1.00000000  1
  N  N7  1  0.28980600  0.71483200  0.71483200  1
  N  N8  1  0.00000000  0.57497400  0.28516800  1
  N  N9  1  0.42502600  0.42502600  0.71019400  1
  N  N10  1  0.57497400  0.00000000  0.28516800  1
  N  N11  1  0.42502600  0.71019400  0.42502600  1
  N  N12  1  0.71483200  0.28980600  0.71483200  1
  N  N13  1  0.00000000  0.28516800  0.57497400  1
  N  N14  1  0.71019400  0.42502600  0.42502600  1
  N  N15  1  0.71483200  0.71483200  0.28980600  1
  P  P16  1  0.50000000  0.25000000  0.75000000  1
  P  P17  1  0.50000000  0.75000000  0.25000000  1
  P  P18  1  0.25000000  0.50000000  0.75000000  1
  P  P19  1  0.75000000  0.50000000  0.25000000  1
  P  P20  1  0.25000000  0.75000000  0.50000000  1
  P  P21  1  0.75000000  0.25000000  0.50000000  1
  S  S22  1  0.00000000  0.00000000  0.00000000  1
