# generated using pymatgen
data_BeH2SeO4
_symmetry_space_group_name_H-M   'P 1'
_cell_length_a   5.71651100
_cell_length_b   7.62622000
_cell_length_c   7.95413100
_cell_angle_alpha   90.00000000
_cell_angle_beta   90.00000000
_cell_angle_gamma   90.00000000
_symmetry_Int_Tables_number   1
_chemical_formula_structural   BeH2SeO4
_chemical_formula_sum   'Be4 H8 Se4 O16'
_cell_volume   346.76328810
_cell_formula_units_Z   4
loop_
 _symmetry_equiv_pos_site_id
 _symmetry_equiv_pos_as_xyz
  1  'x, y, z'
loop_
 _atom_site_type_symbol
 _atom_site_label
 _atom_site_symmetry_multiplicity
 _atom_site_fract_x
 _atom_site_fract_y
 _atom_site_fract_z
 _atom_site_occupancy
  Be  Be0  1  0.11093900  0.26805800  0.26596200  1.0
  Be  Be1  1  0.38906100  0.73194200  0.76596200  1.0
  Be  Be2  1  0.61093900  0.23194200  0.73403800  1.0
  Be  Be3  1  0.88906100  0.76805800  0.23403800  1.0
  H  H4  1  0.14621200  0.90486800  0.94377800  1.0
  H  H5  1  0.21778700  0.96935600  0.31569500  1.0
  H  H6  1  0.28221300  0.03064400  0.81569500  1.0
  H  H7  1  0.35378800  0.09513200  0.44377800  1.0
  H  H8  1  0.64621200  0.59513200  0.05622200  1.0
  H  H9  1  0.71778700  0.53064400  0.68430500  1.0
  H  H10  1  0.78221300  0.46935600  0.18430500  1.0
  H  H11  1  0.85378800  0.40486800  0.55622200  1.0
  Se  Se12  1  0.21266600  0.41263100  0.92229700  1.0
  Se  Se13  1  0.28733400  0.58736900  0.42229700  1.0
  Se  Se14  1  0.71266600  0.08736900  0.07770300  1.0
  Se  Se15  1  0.78733400  0.91263100  0.57770300  1.0
  O  O16  1  0.08269300  0.41878400  0.41266100  1.0
  O  O17  1  0.15922200  0.74238800  0.29247500  1.0
  O  O18  1  0.21111900  0.66781500  0.61733400  1.0
  O  O19  1  0.22317300  0.09122500  0.35964500  1.0
  O  O20  1  0.27682700  0.90877500  0.85964500  1.0
  O  O21  1  0.28888100  0.33218500  0.11733400  1.0
  O  O22  1  0.34077800  0.25761200  0.79247500  1.0
  O  O23  1  0.41730700  0.58121600  0.91266100  1.0
  O  O24  1  0.58269300  0.08121600  0.58733900  1.0
  O  O25  1  0.65922200  0.75761200  0.70752500  1.0
  O  O26  1  0.71111900  0.83218500  0.38266600  1.0
  O  O27  1  0.72317300  0.40877500  0.64035500  1.0
  O  O28  1  0.77682700  0.59122500  0.14035500  1.0
  O  O29  1  0.78888100  0.16781500  0.88266600  1.0
  O  O30  1  0.84077800  0.24238800  0.20752500  1.0
  O  O31  1  0.91730700  0.91878400  0.08733900  1.0
