# generated using pymatgen
data_BePH3O5
_symmetry_space_group_name_H-M   'P 1'
_cell_length_a   4.97696213
_cell_length_b   8.51200532
_cell_length_c   8.63611856
_cell_angle_alpha   90.00000000
_cell_angle_beta   90.00000000
_cell_angle_gamma   90.00000000
_symmetry_Int_Tables_number   1
_chemical_formula_structural   BePH3O5
_chemical_formula_sum   'Be4 P4 H12 O20'
_cell_volume   365.85990598
_cell_formula_units_Z   4
loop_
 _symmetry_equiv_pos_site_id
 _symmetry_equiv_pos_as_xyz
  1  'x, y, z'
loop_
 _atom_site_type_symbol
 _atom_site_label
 _atom_site_symmetry_multiplicity
 _atom_site_fract_x
 _atom_site_fract_y
 _atom_site_fract_z
 _atom_site_occupancy
  Be  Be0  1  0.48805969  0.82155426  0.08971634  1
  Be  Be1  1  0.98805969  0.17844574  0.91028366  1
  Be  Be2  1  0.48805969  0.32155426  0.41028366  1
  Be  Be3  1  0.98805969  0.67844574  0.58971634  1
  P  P4  1  0.98307986  0.81091804  0.91445270  1
  P  P5  1  0.48307986  0.18908196  0.08554730  1
  P  P6  1  0.98307986  0.31091804  0.58554730  1
  P  P7  1  0.48307986  0.68908196  0.41445270  1
  H  H8  1  0.12653740  0.60501740  0.11462591  1
  H  H9  1  0.62653740  0.39498260  0.88537409  1
  H  H10  1  0.12653740  0.10501740  0.38537409  1
  H  H11  1  0.62653740  0.89498260  0.61462591  1
  H  H12  1  0.63153275  0.60368750  0.88927334  1
  H  H13  1  0.13153275  0.39631250  0.11072666  1
  H  H14  1  0.63153275  0.10368750  0.61072666  1
  H  H15  1  0.13153275  0.89631250  0.38927334  1
  H  H16  1  0.72474130  0.50079117  0.73314833  1
  H  H17  1  0.22474130  0.49920883  0.26685167  1
  H  H18  1  0.72474130  0.00079117  0.76685167  1
  H  H19  1  0.22474130  0.99920883  0.23314833  1
  O  O20  1  0.69982630  0.74863778  0.96441857  1
  O  O21  1  0.19982630  0.25136222  0.03558143  1
  O  O22  1  0.69982630  0.24863778  0.53558143  1
  O  O23  1  0.19982630  0.75136222  0.46441857  1
  O  O24  1  0.18615401  0.75737768  0.04048167  1
  O  O25  1  0.68615401  0.24262232  0.95951833  1
  O  O26  1  0.18615401  0.25737768  0.45951833  1
  O  O27  1  0.68615401  0.74262232  0.54048167  1
  O  O28  1  0.96261116  0.98975597  0.90353729  1
  O  O29  1  0.46261116  0.01024403  0.09646271  1
  O  O30  1  0.96261116  0.48975597  0.59646271  1
  O  O31  1  0.46261116  0.51024403  0.40353729  1
  O  O32  1  0.05473004  0.73938737  0.75964649  1
  O  O33  1  0.55473004  0.26061263  0.24035351  1
  O  O34  1  0.05473004  0.23938737  0.74035351  1
  O  O35  1  0.55473004  0.76061263  0.25964649  1
  O  O36  1  0.59462748  0.49985554  0.82375438  1
  O  O37  1  0.09462748  0.50014446  0.17624562  1
  O  O38  1  0.59462748  0.99985554  0.67624562  1
  O  O39  1  0.09462748  0.00014446  0.32375438  1
