# generated using pymatgen
data_PClF2
_symmetry_space_group_name_H-M   'P 1'
_cell_length_a   4.46376947
_cell_length_b   5.64948132
_cell_length_c   8.23448189
_cell_angle_alpha   71.18027260
_cell_angle_beta   80.61805956
_cell_angle_gamma   69.07612995
_symmetry_Int_Tables_number   1
_chemical_formula_structural   PClF2
_chemical_formula_sum   'P2 Cl2 F4'
_cell_volume   183.32500152
_cell_formula_units_Z   2
loop_
 _symmetry_equiv_pos_site_id
 _symmetry_equiv_pos_as_xyz
  1  'x, y, z'
loop_
 _atom_site_type_symbol
 _atom_site_label
 _atom_site_symmetry_multiplicity
 _atom_site_fract_x
 _atom_site_fract_y
 _atom_site_fract_z
 _atom_site_occupancy
  P  P0  1  0.97852824  0.21316965  0.74143507  1
  P  P1  1  0.44659975  0.81800036  0.29376672  1
  Cl  Cl2  1  0.30893591  0.86230211  0.86602927  1
  Cl  Cl3  1  0.50114847  0.18080456  0.17146827  1
  F  F4  1  0.60766147  0.75760997  0.46883765  1
  F  F5  1  0.95571745  0.13571895  0.57493291  1
  F  F6  1  0.75242249  0.64118644  0.20635130  1
  F  F7  1  0.21974222  0.37730398  0.65733680  1
