# generated using pymatgen
data_NaLi3V4O12
_symmetry_space_group_name_H-M   'P 1'
_cell_length_a   5.92263809
_cell_length_b   6.84307872
_cell_length_c   6.84307872
_cell_angle_alpha   82.15137507
_cell_angle_beta   75.01420117
_cell_angle_gamma   75.01420117
_symmetry_Int_Tables_number   1
_chemical_formula_structural   NaLi3V4O12
_chemical_formula_sum   'Na1 Li3 V4 O12'
_cell_volume   258.07671380
_cell_formula_units_Z   1
loop_
 _symmetry_equiv_pos_site_id
 _symmetry_equiv_pos_as_xyz
  1  'x, y, z'
loop_
 _atom_site_type_symbol
 _atom_site_label
 _atom_site_symmetry_multiplicity
 _atom_site_fract_x
 _atom_site_fract_y
 _atom_site_fract_z
 _atom_site_occupancy
  Li  Li0  1  0.50000000  0.08339800  0.91660200  1
  Li  Li1  1  0.00000000  0.91359700  0.08640300  1
  Li  Li2  1  0.50000000  0.72746000  0.27254000  1
  Na  Na3  1  0.00000000  0.28739200  0.71260800  1
  O  O4  1  0.54457100  0.38049800  0.90796600  1
  O  O5  1  0.45542900  0.09203400  0.61950200  1
  O  O6  1  0.95570300  0.61976800  0.08801200  1
  O  O7  1  0.04429700  0.91198800  0.38023200  1
  O  O8  1  0.30376200  0.65450700  0.63167500  1
  O  O9  1  0.69623800  0.36832500  0.34549300  1
  O  O10  1  0.20324300  0.34733900  0.36203000  1
  O  O11  1  0.79675700  0.63797000  0.65266100  1
  O  O12  1  0.40734400  0.78111400  0.99471100  1
  O  O13  1  0.59265600  0.00528900  0.21888600  1
  O  O14  1  0.09911600  0.21069700  0.02062500  1
  O  O15  1  0.90088400  0.97937500  0.78930300  1
  V  V16  1  0.50112800  0.61965300  0.80681000  1
  V  V17  1  0.49887200  0.19319000  0.38034700  1
  V  V18  1  0.99565500  0.38301500  0.19661000  1
  V  V19  1  0.00434500  0.80339000  0.61698500  1
