# generated using pymatgen
data_SiO2
_symmetry_space_group_name_H-M   'P 1'
_cell_length_a   5.05560177
_cell_length_b   11.16231857
_cell_length_c   11.16231857
_cell_angle_alpha   102.18328391
_cell_angle_beta   90.00000000
_cell_angle_gamma   90.00000000
_symmetry_Int_Tables_number   1
_chemical_formula_structural   SiO2
_chemical_formula_sum   'Si12 O24'
_cell_volume   615.72736481
_cell_formula_units_Z   12
loop_
 _symmetry_equiv_pos_site_id
 _symmetry_equiv_pos_as_xyz
  1  'x, y, z'
loop_
 _atom_site_type_symbol
 _atom_site_label
 _atom_site_symmetry_multiplicity
 _atom_site_fract_x
 _atom_site_fract_y
 _atom_site_fract_z
 _atom_site_occupancy
  O  O0  1  0.70572372  0.87101663  0.31374770  1
  O  O1  1  0.02055715  0.52722974  0.98983792  1
  O  O2  1  0.70572372  0.68625230  0.12898337  1
  O  O3  1  0.20560903  0.47617299  0.33830936  1
  O  O4  1  0.35875603  0.69375227  0.30624773  1
  O  O5  1  0.70560903  0.52382701  0.66169064  1
  O  O6  1  0.15714774  0.35516070  0.10860268  1
  O  O7  1  0.65714774  0.64483930  0.89139732  1
  O  O8  1  0.70560903  0.33830936  0.47617299  1
  O  O9  1  0.35858407  0.34673434  0.65326566  1
  O  O10  1  0.52055715  0.47277026  0.01016208  1
  O  O11  1  0.85858407  0.65326566  0.34673434  1
  O  O12  1  0.01910791  0.71004544  0.74887141  1
  O  O13  1  0.20560903  0.66169064  0.52382701  1
  O  O14  1  0.85875603  0.30624773  0.69375227  1
  O  O15  1  0.65714774  0.10860268  0.35516070  1
  O  O16  1  0.52055715  0.98983792  0.52722974  1
  O  O17  1  0.51910791  0.28995456  0.25112859  1
  O  O18  1  0.15714774  0.89139732  0.64483930  1
  O  O19  1  0.20572372  0.12898337  0.68625230  1
  O  O20  1  0.01910791  0.25112859  0.28995456  1
  O  O21  1  0.02055715  0.01016208  0.47277026  1
  O  O22  1  0.51910791  0.74887141  0.71004544  1
  O  O23  1  0.20572372  0.31374770  0.87101663  1
  Si  Si24  1  0.22499850  0.00527830  0.58272639  1
  Si  Si25  1  0.15842964  0.27416477  0.72583523  1
  Si  Si26  1  0.72499850  0.99472170  0.41727361  1
  Si  Si27  1  0.72474747  0.65617863  0.75337477  1
  Si  Si28  1  0.72474747  0.24662523  0.34382137  1
  Si  Si29  1  0.22474747  0.34382137  0.24662523  1
  Si  Si30  1  0.65842964  0.72583523  0.27416477  1
  Si  Si31  1  0.65845120  0.37871591  0.62128409  1
  Si  Si32  1  0.22474747  0.75337477  0.65617863  1
  Si  Si33  1  0.22499850  0.41727361  0.99472170  1
  Si  Si34  1  0.15845120  0.62128409  0.37871591  1
  Si  Si35  1  0.72499850  0.58272639  0.00527830  1
