# generated using pymatgen
data_CsPH2SO3
_symmetry_space_group_name_H-M   'P 1'
_cell_length_a   4.61441619
_cell_length_b   4.61441619
_cell_length_c   6.36399696
_cell_angle_alpha   79.23821463
_cell_angle_beta   79.23821463
_cell_angle_gamma   88.22898908
_symmetry_Int_Tables_number   1
_chemical_formula_structural   CsPH2SO3
_chemical_formula_sum   'Cs1 P1 H2 S1 O3'
_cell_volume   130.78175324
_cell_formula_units_Z   1
loop_
 _symmetry_equiv_pos_site_id
 _symmetry_equiv_pos_as_xyz
  1  'x, y, z'
loop_
 _atom_site_type_symbol
 _atom_site_label
 _atom_site_symmetry_multiplicity
 _atom_site_fract_x
 _atom_site_fract_y
 _atom_site_fract_z
 _atom_site_occupancy
  Cs  Cs0  1  0.15837654  0.15837654  0.61128395  1
  H  H1  1  0.79231225  0.16825401  0.18319609  1
  H  H2  1  0.16825401  0.79231225  0.18319609  1
  O  O3  1  0.88658912  0.88658912  0.11875447  1
  O  O4  1  0.74330079  0.35591322  0.25550226  1
  O  O5  1  0.35591322  0.74330079  0.25550226  1
  P  P6  1  0.65356035  0.65356035  0.11457036  1
  S  S7  1  0.60752372  0.60752372  0.81998452  1
