# generated using pymatgen
data_MgH6(NCl)2
_symmetry_space_group_name_H-M   'P 1'
_cell_length_a   3.74869937
_cell_length_b   6.09519622
_cell_length_c   6.09519622
_cell_angle_alpha   91.93083945
_cell_angle_beta   92.39438948
_cell_angle_gamma   92.39438948
_symmetry_Int_Tables_number   1
_chemical_formula_structural   MgH6(NCl)2
_chemical_formula_sum   'Mg1 H6 N2 Cl2'
_cell_volume   138.93878031
_cell_formula_units_Z   1
loop_
 _symmetry_equiv_pos_site_id
 _symmetry_equiv_pos_as_xyz
  1  'x, y, z'
loop_
 _atom_site_type_symbol
 _atom_site_label
 _atom_site_symmetry_multiplicity
 _atom_site_fract_x
 _atom_site_fract_y
 _atom_site_fract_z
 _atom_site_occupancy
  Cl  Cl0  1  0.50000000  0.80068800  0.19931200  1
  Cl  Cl1  1  0.50000000  0.20538900  0.79461100  1
  H  H2  1  0.79832600  0.79664000  0.60676800  1
  H  H3  1  0.20167400  0.39323200  0.20336000  1
  H  H4  1  0.20128500  0.72370600  0.66561400  1
  H  H5  1  0.13501100  0.21995500  0.40089300  1
  H  H6  1  0.79871500  0.33438600  0.27629400  1
  H  H7  1  0.86498900  0.59910700  0.78004500  1
  Mg  Mg8  1  0.00000000  0.00125700  0.99874300  1
  N  N9  1  0.03752200  0.26558200  0.24994200  1
  N  N10  1  0.96247800  0.75005800  0.73441800  1
