# generated using pymatgen
data_SiH8(NF3)2
_symmetry_space_group_name_H-M   'P 1'
_cell_length_a   5.94255164
_cell_length_b   5.94255164
_cell_length_c   9.63360900
_cell_angle_alpha   90.00000000
_cell_angle_beta   90.00000000
_cell_angle_gamma   120.00000000
_symmetry_Int_Tables_number   1
_chemical_formula_structural   SiH8(NF3)2
_chemical_formula_sum   'Si2 H16 N4 F12'
_cell_volume   294.62227320
_cell_formula_units_Z   2
loop_
 _symmetry_equiv_pos_site_id
 _symmetry_equiv_pos_as_xyz
  1  'x, y, z'
loop_
 _atom_site_type_symbol
 _atom_site_label
 _atom_site_symmetry_multiplicity
 _atom_site_fract_x
 _atom_site_fract_y
 _atom_site_fract_z
 _atom_site_occupancy
  Si  Si0  1  0.33333333  0.66666667  0.24812200  1.0
  Si  Si1  1  0.66666667  0.33333333  0.74812200  1.0
  H  H2  1  0.09460050  0.90539950  0.54657300  1.0
  H  H3  1  0.14470500  0.57235250  0.90469200  1.0
  H  H4  1  0.00000000  0.00000000  0.18795700  1.0
  H  H5  1  0.00000000  0.00000000  0.68795700  1.0
  H  H6  1  0.09460050  0.18920100  0.54657300  1.0
  H  H7  1  0.33333333  0.66666667  0.76295800  1.0
  H  H8  1  0.42764750  0.85529500  0.90469200  1.0
  H  H9  1  0.18920100  0.09460050  0.04657300  1.0
  H  H10  1  0.42764750  0.57235250  0.90469200  1.0
  H  H11  1  0.57235250  0.42764750  0.40469200  1.0
  H  H12  1  0.81079900  0.90539950  0.54657300  1.0
  H  H13  1  0.90539950  0.81079900  0.04657300  1.0
  H  H14  1  0.57235250  0.14470500  0.40469200  1.0
  H  H15  1  0.66666667  0.33333333  0.26295800  1.0
  H  H16  1  0.85529500  0.42764750  0.40469200  1.0
  H  H17  1  0.90539950  0.09460050  0.04657300  1.0
  N  N18  1  0.00000000  0.00000000  0.08094600  1.0
  N  N19  1  0.00000000  0.00000000  0.58094600  1.0
  N  N20  1  0.33333333  0.66666667  0.86968400  1.0
  N  N21  1  0.66666667  0.33333333  0.36968400  1.0
  F  F22  1  0.19655100  0.80344900  0.35248000  1.0
  F  F23  1  0.05988600  0.52994300  0.14632600  1.0
  F  F24  1  0.47005700  0.94011400  0.14632600  1.0
  F  F25  1  0.19655100  0.39310200  0.35248000  1.0
  F  F26  1  0.47005700  0.52994300  0.14632600  1.0
  F  F27  1  0.60689800  0.80344900  0.35248000  1.0
  F  F28  1  0.39310200  0.19655100  0.85248000  1.0
  F  F29  1  0.52994300  0.47005700  0.64632600  1.0
  F  F30  1  0.80344900  0.60689800  0.85248000  1.0
  F  F31  1  0.52994300  0.05988600  0.64632600  1.0
  F  F32  1  0.94011400  0.47005700  0.64632600  1.0
  F  F33  1  0.80344900  0.19655100  0.85248000  1.0
