# generated using pymatgen
data_RbPN2
_symmetry_space_group_name_H-M   'P 1'
_cell_length_a   5.28060720
_cell_length_b   5.28060720
_cell_length_c   5.28060720
_cell_angle_alpha   90.28132893
_cell_angle_beta   119.83770781
_cell_angle_gamma   119.83770781
_symmetry_Int_Tables_number   1
_chemical_formula_structural   RbPN2
_chemical_formula_sum   'Rb2 P2 N4'
_cell_volume   104.37463319
_cell_formula_units_Z   2
loop_
 _symmetry_equiv_pos_site_id
 _symmetry_equiv_pos_as_xyz
  1  'x, y, z'
loop_
 _atom_site_type_symbol
 _atom_site_label
 _atom_site_symmetry_multiplicity
 _atom_site_fract_x
 _atom_site_fract_y
 _atom_site_fract_z
 _atom_site_occupancy
  N  N0  1  0.28130979  0.40630979  0.62500000  1
  N  N1  1  0.71869021  0.34369021  0.12500000  1
  N  N2  1  0.21869021  0.87500000  0.59369021  1
  N  N3  1  0.78130979  0.37500000  0.65630979  1
  P  P4  1  0.00000000  0.50000000  0.50000000  1
  P  P5  1  0.50000000  0.25000000  0.75000000  1
  Rb  Rb6  1  0.00000000  0.00000000  0.00000000  1
  Rb  Rb7  1  0.50000000  0.75000000  0.25000000  1
