# generated using pymatgen
data_Zn3GaB6PO12
_symmetry_space_group_name_H-M   'P 1'
_cell_length_a   6.65003891
_cell_length_b   6.67920494
_cell_length_c   6.67920494
_cell_angle_alpha   109.55950818
_cell_angle_beta   109.38278814
_cell_angle_gamma   109.38278814
_symmetry_Int_Tables_number   1
_chemical_formula_structural   Zn3GaB6PO12
_chemical_formula_sum   'Zn3 Ga1 B6 P1 O12'
_cell_volume   228.62549038
_cell_formula_units_Z   1
loop_
 _symmetry_equiv_pos_site_id
 _symmetry_equiv_pos_as_xyz
  1  'x, y, z'
loop_
 _atom_site_type_symbol
 _atom_site_label
 _atom_site_symmetry_multiplicity
 _atom_site_fract_x
 _atom_site_fract_y
 _atom_site_fract_z
 _atom_site_occupancy
  B  B0  1  0.50271600  0.25399600  0.75194900  1
  B  B1  1  0.75076700  0.50204700  0.24805100  1
  B  B2  1  0.24872000  0.74600400  0.49795300  1
  B  B3  1  0.75076700  0.24805100  0.50204700  1
  B  B4  1  0.24872000  0.49795300  0.74600400  1
  B  B5  1  0.50271600  0.75194900  0.25399600  1
  Ga  Ga6  1  0.65283500  -0.00000000  -0.00000000  1
  O  O7  1  0.28659100  0.28619100  0.71671100  1
  O  O8  1  0.43104600  0.00000000  0.72369000  1
  O  O9  1  0.72021300  0.42645600  -0.00000000  1
  O  O10  1  0.56988000  0.28328900  0.56948000  1
  O  O11  1  0.00040000  0.71380900  0.43052000  1
  O  O12  1  0.70735600  0.27631000  0.27631000  1
  O  O13  1  0.72021300  -0.00000000  0.42645600  1
  O  O14  1  0.28659100  0.71671100  0.28619100  1
  O  O15  1  0.00040000  0.43052000  0.71380900  1
  O  O16  1  0.43104600  0.72369000  -0.00000000  1
  O  O17  1  0.29375700  0.57354400  0.57354400  1
  O  O18  1  0.56988000  0.56948000  0.28328900  1
  P  P19  1  0.99229000  -0.00000000  -0.00000000  1
  Zn  Zn20  1  0.33375700  0.33408800  0.33408800  1
  Zn  Zn21  1  0.99966900  0.66591200  -0.00000000  1
  Zn  Zn22  1  0.99966900  -0.00000000  0.66591200  1
