# generated using pymatgen
data_LiBH4
_symmetry_space_group_name_H-M   'P 1'
_cell_length_a   3.96361700
_cell_length_b   3.96361700
_cell_length_c   6.39516700
_cell_angle_alpha   90.00000000
_cell_angle_beta   90.00000000
_cell_angle_gamma   90.53861534
_symmetry_Int_Tables_number   1
_chemical_formula_structural   LiBH4
_chemical_formula_sum   'Li2 B2 H8'
_cell_volume   100.46529532
_cell_formula_units_Z   2
loop_
 _symmetry_equiv_pos_site_id
 _symmetry_equiv_pos_as_xyz
  1  'x, y, z'
loop_
 _atom_site_type_symbol
 _atom_site_label
 _atom_site_symmetry_multiplicity
 _atom_site_fract_x
 _atom_site_fract_y
 _atom_site_fract_z
 _atom_site_occupancy
  B  B0  1  0.48525100  0.01873600  0.25000000  1
  B  B1  1  0.01873600  0.48525100  0.75000000  1
  H  H2  1  0.47267000  0.83677500  0.40516400  1
  H  H3  1  0.83677500  0.47267000  0.59483600  1
  H  H4  1  0.47267000  0.83677500  0.09483600  1
  H  H5  1  0.83677500  0.47267000  0.90516400  1
  H  H6  1  0.26108900  0.22675500  0.25000000  1
  H  H7  1  0.22675500  0.26108900  0.75000000  1
  H  H8  1  0.74358600  0.18905400  0.25000000  1
  H  H9  1  0.18905400  0.74358600  0.75000000  1
  Li  Li10  1  0.99451900  0.99451900  0.50000000  1
  Li  Li11  1  0.99451900  0.99451900  0.00000000  1
