# generated using pymatgen
data_RbInP2Se7
_symmetry_space_group_name_H-M   'P 1'
_cell_length_a   6.86173900
_cell_length_b   6.94813583
_cell_length_c   6.94813583
_cell_angle_alpha   96.20026562
_cell_angle_beta   98.25712307
_cell_angle_gamma   98.25712307
_symmetry_Int_Tables_number   1
_chemical_formula_structural   RbInP2Se7
_chemical_formula_sum   'Rb1 In1 P2 Se7'
_cell_volume   321.61862173
_cell_formula_units_Z   1
loop_
 _symmetry_equiv_pos_site_id
 _symmetry_equiv_pos_as_xyz
  1  'x, y, z'
loop_
 _atom_site_type_symbol
 _atom_site_label
 _atom_site_symmetry_multiplicity
 _atom_site_fract_x
 _atom_site_fract_y
 _atom_site_fract_z
 _atom_site_occupancy
  In  In0  1  0.00000000  0.49080135  0.50919865  1
  P  P1  1  0.91105266  0.94477357  0.64357695  1
  P  P2  1  0.08894734  0.35642305  0.05522643  1
  Rb  Rb3  1  0.50000000  0.02126735  0.97873265  1
  Se  Se4  1  0.00000000  0.01952179  0.98047821  1
  Se  Se5  1  0.26123682  0.47919095  0.84071143  1
  Se  Se6  1  0.70119378  0.67311207  0.63313128  1
  Se  Se7  1  0.29880622  0.36686872  0.32688793  1
  Se  Se8  1  0.17065613  0.88310746  0.51285287  1
  Se  Se9  1  0.82934387  0.48714713  0.11689254  1
  Se  Se10  1  0.73876318  0.15928857  0.52080905  1
