# generated using pymatgen
data_LiP(HO2)2
_symmetry_space_group_name_H-M   'P 1'
_cell_length_a   6.25300000
_cell_length_b   7.65600000
_cell_length_c   6.88100000
_cell_angle_alpha   90.00000000
_cell_angle_beta   90.00000000
_cell_angle_gamma   90.00000000
_symmetry_Int_Tables_number   1
_chemical_formula_structural   LiP(HO2)2
_chemical_formula_sum   'Li4 P4 H8 O16'
_cell_volume   329.41389281
_cell_formula_units_Z   4
loop_
 _symmetry_equiv_pos_site_id
 _symmetry_equiv_pos_as_xyz
  1  'x, y, z'
loop_
 _atom_site_type_symbol
 _atom_site_label
 _atom_site_symmetry_multiplicity
 _atom_site_fract_x
 _atom_site_fract_y
 _atom_site_fract_z
 _atom_site_occupancy
  Li  Li0  1  0.01110000  0.73050000  0.50000000  1.0
  Li  Li1  1  0.51110000  0.76950000  0.50000000  1.0
  Li  Li2  1  0.48890000  0.23050000  0.00000000  1.0
  Li  Li3  1  0.98890000  0.26950000  0.00000000  1.0
  P  P4  1  0.20351000  0.07021000  0.67317000  1.0
  P  P5  1  0.79649000  0.92979000  0.17317000  1.0
  P  P6  1  0.29649000  0.57021000  0.17317000  1.0
  P  P7  1  0.70351000  0.42979000  0.67317000  1.0
  H  H8  1  0.06300000  0.14800000  0.41500000  1.0
  H  H9  1  0.93700000  0.85200000  0.91500000  1.0
  H  H10  1  0.43700000  0.64800000  0.91500000  1.0
  H  H11  1  0.56300000  0.35200000  0.41500000  1.0
  H  H12  1  0.00500000  0.58500000  0.06700000  1.0
  H  H13  1  0.99500000  0.41500000  0.56700000  1.0
  H  H14  1  0.50500000  0.91500000  0.06700000  1.0
  H  H15  1  0.49500000  0.08500000  0.56700000  1.0
  O  O16  1  0.73010000  0.31640000  0.84920000  1.0
  O  O17  1  0.06860000  0.50300000  0.10070000  1.0
  O  O18  1  0.93170000  0.09100000  0.19410000  1.0
  O  O19  1  0.06830000  0.90900000  0.69410000  1.0
  O  O20  1  0.93140000  0.49700000  0.60070000  1.0
  O  O21  1  0.56830000  0.59100000  0.69410000  1.0
  O  O22  1  0.56860000  0.99700000  0.10070000  1.0
  O  O23  1  0.43140000  0.00300000  0.60070000  1.0
  O  O24  1  0.61740000  0.30740000  0.50640000  1.0
  O  O25  1  0.38260000  0.69260000  0.00640000  1.0
  O  O26  1  0.88260000  0.80740000  0.00640000  1.0
  O  O27  1  0.11740000  0.19260000  0.50640000  1.0
  O  O28  1  0.76990000  0.81640000  0.34920000  1.0
  O  O29  1  0.26990000  0.68360000  0.34920000  1.0
  O  O30  1  0.43170000  0.40900000  0.19410000  1.0
  O  O31  1  0.23010000  0.18360000  0.84920000  1.0
