# generated using pymatgen
data_KCSN
_symmetry_space_group_name_H-M   'P 1'
_cell_length_a   6.20145205
_cell_length_b   6.20145205
_cell_length_c   6.20145205
_cell_angle_alpha   100.74527043
_cell_angle_beta   113.95755682
_cell_angle_gamma   114.04771331
_symmetry_Int_Tables_number   1
_chemical_formula_structural   KCSN
_chemical_formula_sum   'K2 C2 S2 N2'
_cell_volume   180.47029108
_cell_formula_units_Z   2
loop_
 _symmetry_equiv_pos_site_id
 _symmetry_equiv_pos_as_xyz
  1  'x, y, z'
loop_
 _atom_site_type_symbol
 _atom_site_label
 _atom_site_symmetry_multiplicity
 _atom_site_fract_x
 _atom_site_fract_y
 _atom_site_fract_z
 _atom_site_occupancy
  C  C0  1  0.79613000  0.02329950  0.27283050  1
  C  C1  1  0.75046900  0.52329950  0.72716950  1
  K  K2  1  0.25025500  0.25025500  -0.00000000  1
  K  K3  1  0.25025500  0.75025500  0.50000000  1
  N  N4  1  0.04458800  0.14899950  0.39558850  1
  N  N5  1  0.75341100  0.64899950  0.60441150  1
  S  S6  1  0.45207000  0.85164700  0.10042300  1
  S  S7  1  0.75122400  0.35164700  0.89957700  1
