# generated using pymatgen
data_Rb2Sr(PO3)4
_symmetry_space_group_name_H-M   'P 1'
_cell_length_a   7.53268705
_cell_length_b   7.53268705
_cell_length_c   7.53268705
_cell_angle_alpha   92.21760591
_cell_angle_beta   118.72803100
_cell_angle_gamma   118.72803100
_symmetry_Int_Tables_number   1
_chemical_formula_structural   Rb2Sr(PO3)4
_chemical_formula_sum   'Rb2 Sr1 P4 O12'
_cell_volume   307.78921080
_cell_formula_units_Z   1
loop_
 _symmetry_equiv_pos_site_id
 _symmetry_equiv_pos_as_xyz
  1  'x, y, z'
loop_
 _atom_site_type_symbol
 _atom_site_label
 _atom_site_symmetry_multiplicity
 _atom_site_fract_x
 _atom_site_fract_y
 _atom_site_fract_z
 _atom_site_occupancy
  O  O0  1  0.25599500  0.63379200  0.99389900  1
  O  O1  1  0.74400500  0.73790400  0.37779700  1
  O  O2  1  0.63989300  0.00610100  0.26209600  1
  O  O3  1  0.36010700  0.62220300  0.36620800  1
  O  O4  1  0.93842300  0.32741700  0.02124100  1
  O  O5  1  0.06157700  0.08281800  0.38899400  1
  O  O6  1  0.30617600  0.97875900  0.91718200  1
  O  O7  1  0.69382400  0.61100600  0.67258300  1
  O  O8  1  0.06573900  0.71974300  0.16211400  1
  O  O9  1  0.93426100  0.09637500  0.65400400  1
  O  O10  1  0.55762900  0.83788600  0.90362500  1
  O  O11  1  0.44237100  0.34599600  0.28025700  1
  P  P12  1  0.12974700  0.56650100  0.12734200  1
  P  P13  1  0.87025300  0.99759500  0.43675400  1
  P  P14  1  0.43915900  0.87265800  0.00240500  1
  P  P15  1  0.56084100  0.56324600  0.43349900  1
  Rb  Rb16  1  0.50000000  0.07732400  0.57732400  1
  Rb  Rb17  1  0.50000000  0.42267600  0.92267600  1
  Sr  Sr18  1  0.00000000  0.00000000  0.00000000  1
