# generated using pymatgen
data_RbZnCl3
_symmetry_space_group_name_H-M   'P 1'
_cell_length_a   6.93358685
_cell_length_b   5.82658375
_cell_length_c   8.50004273
_cell_angle_alpha   90.00000000
_cell_angle_beta   111.82886626
_cell_angle_gamma   90.00000000
_symmetry_Int_Tables_number   1
_chemical_formula_structural   RbZnCl3
_chemical_formula_sum   'Rb2 Zn2 Cl6'
_cell_volume   318.77243676
_cell_formula_units_Z   2
loop_
 _symmetry_equiv_pos_site_id
 _symmetry_equiv_pos_as_xyz
  1  'x, y, z'
loop_
 _atom_site_type_symbol
 _atom_site_label
 _atom_site_symmetry_multiplicity
 _atom_site_fract_x
 _atom_site_fract_y
 _atom_site_fract_z
 _atom_site_occupancy
  Rb  Rb0  1  0.54347781  0.03189165  0.75275160  1
  Rb  Rb1  1  0.45652219  0.53189165  0.24724840  1
  Zn  Zn2  1  0.01501940  0.45038116  0.64247292  1
  Zn  Zn3  1  0.98498060  0.95038116  0.35752708  1
  Cl  Cl4  1  0.67907475  0.03647214  0.16362652  1
  Cl  Cl5  1  0.00836864  0.04807183  0.62734946  1
  Cl  Cl6  1  0.71574554  0.53306622  0.66754857  1
  Cl  Cl7  1  0.32092525  0.53647214  0.83637348  1
  Cl  Cl8  1  0.99163136  0.54807183  0.37265054  1
  Cl  Cl9  1  0.28425446  0.03306622  0.33245143  1
