# generated using pymatgen
data_Ge3(BiO3)4
_symmetry_space_group_name_H-M   'P 1'
_cell_length_a   9.09881514
_cell_length_b   9.09881514
_cell_length_c   9.09881514
_cell_angle_alpha   109.47122063
_cell_angle_beta   109.47122063
_cell_angle_gamma   109.47122063
_symmetry_Int_Tables_number   1
_chemical_formula_structural   Ge3(BiO3)4
_chemical_formula_sum   'Ge6 Bi8 O24'
_cell_volume   579.87266070
_cell_formula_units_Z   2
loop_
 _symmetry_equiv_pos_site_id
 _symmetry_equiv_pos_as_xyz
  1  'x, y, z'
loop_
 _atom_site_type_symbol
 _atom_site_label
 _atom_site_symmetry_multiplicity
 _atom_site_fract_x
 _atom_site_fract_y
 _atom_site_fract_z
 _atom_site_occupancy
  Bi  Bi0  1  0.66970540  0.16970540  0.66970540  1
  Bi  Bi1  1  1.00000000  0.83029460  0.50000000  1
  Bi  Bi2  1  0.33029460  -0.00000000  1.00000000  1
  Bi  Bi3  1  0.50000000  0.50000000  0.33029460  1
  Bi  Bi4  1  0.83029460  -0.00000000  1.00000000  1
  Bi  Bi5  1  0.50000000  0.50000000  0.83029460  1
  Bi  Bi6  1  1.00000000  0.33029460  0.50000000  1
  Bi  Bi7  1  0.16970540  0.66970540  0.16970540  1
  Ge  Ge8  1  0.12500000  0.25000000  0.87500000  1
  Ge  Ge9  1  0.25000000  0.12500000  0.37500000  1
  Ge  Ge10  1  0.75000000  0.37500000  0.12500000  1
  Ge  Ge11  1  0.87500000  0.62500000  0.75000000  1
  Ge  Ge12  1  0.62500000  0.87500000  0.25000000  1
  Ge  Ge13  1  0.37500000  0.75000000  0.62500000  1
  O  O14  1  0.78185227  0.08562431  0.44576383  1
  O  O15  1  0.33608844  0.55423617  0.63986048  1
  O  O16  1  0.80377204  0.21814773  0.16391156  1
  O  O17  1  0.86013952  0.41437569  0.69622796  1
  O  O18  1  0.91437569  0.19622796  0.86013952  1
  O  O19  1  0.69622796  0.36013952  0.91437569  1
  O  O20  1  0.94576383  0.58562431  0.28185227  1
  O  O21  1  0.55423617  0.33608844  0.13986048  1
  O  O22  1  0.30377204  0.16391156  0.21814773  1
  O  O23  1  0.41437569  0.86013952  0.19622796  1
  O  O24  1  0.36013952  0.69622796  0.41437569  1
  O  O25  1  0.28185227  0.44576383  0.08562431  1
  O  O26  1  0.83608844  0.63986048  0.55423617  1
  O  O27  1  0.21814773  0.80377204  0.66391156  1
  O  O28  1  0.19622796  0.91437569  0.36013952  1
  O  O29  1  0.05423617  0.13986048  0.33608844  1
  O  O30  1  0.44576383  0.28185227  0.58562431  1
  O  O31  1  0.58562431  0.94576383  0.78185227  1
  O  O32  1  0.16391156  0.30377204  0.71814773  1
  O  O33  1  0.71814773  0.66391156  0.80377204  1
  O  O34  1  0.63986048  0.83608844  0.05423617  1
  O  O35  1  0.66391156  0.71814773  0.30377204  1
  O  O36  1  0.13986048  0.05423617  0.83608844  1
  O  O37  1  0.08562431  0.78185227  0.94576383  1
