# generated using pymatgen
data_Tl3VO4
_symmetry_space_group_name_H-M   'P 1'
_cell_length_a   6.00153006
_cell_length_b   6.15210200
_cell_length_c   6.15210200
_cell_angle_alpha   64.89557128
_cell_angle_beta   60.80637301
_cell_angle_gamma   60.80637301
_symmetry_Int_Tables_number   1
_chemical_formula_structural   Tl3VO4
_chemical_formula_sum   'Tl3 V1 O4'
_cell_volume   167.85130289
_cell_formula_units_Z   1
loop_
 _symmetry_equiv_pos_site_id
 _symmetry_equiv_pos_as_xyz
  1  'x, y, z'
loop_
 _atom_site_type_symbol
 _atom_site_label
 _atom_site_symmetry_multiplicity
 _atom_site_fract_x
 _atom_site_fract_y
 _atom_site_fract_z
 _atom_site_occupancy
  Tl  Tl4  1  0.76929733  0.70930834  0.75209700  1.0
  Tl  Tl5  1  0.00000000  0.94420187  0.05579813  1.0
  Tl  Tl6  1  0.23070267  0.24790300  0.29069166  1.0
  V  V7  1  0.50000000  0.48963134  0.51036866  1.0
  O  O0  1  0.33144142  0.51059813  0.82651904  1.0
  O  O1  1  0.66855858  0.17348096  0.48940187  1.0
  O  O2  1  0.25683165  0.63693818  0.36306182  1.0
  O  O3  1  0.74316835  0.63693818  0.36306182  1.0
