# generated using pymatgen
data_BAs5(Pb3O10)2
_symmetry_space_group_name_H-M   'P 1'
_cell_length_a   7.15410000
_cell_length_b   7.15410000
_cell_length_c   9.76200000
_cell_angle_alpha   90.00000000
_cell_angle_beta   90.00000000
_cell_angle_gamma   90.00000000
_symmetry_Int_Tables_number   1
_chemical_formula_structural   BAs5(Pb3O10)2
_chemical_formula_sum   'B1 As5 Pb6 O20'
_cell_volume   499.63035516
_cell_formula_units_Z   1
loop_
 _symmetry_equiv_pos_site_id
 _symmetry_equiv_pos_as_xyz
  1  'x, y, z'
loop_
 _atom_site_type_symbol
 _atom_site_label
 _atom_site_symmetry_multiplicity
 _atom_site_fract_x
 _atom_site_fract_y
 _atom_site_fract_z
 _atom_site_occupancy
  B  B0  1  0.50000000  0.50000000  0.50000000  1.0
  As  As1  1  0.29860000  0.70200000  0.71160000  1.0
  As  As2  1  0.70140000  0.29800000  0.71160000  1.0
  As  As3  1  0.29800000  0.29860000  0.28840000  1.0
  As  As4  1  0.00000000  0.00000000  0.00000000  1.0
  As  As5  1  0.70200000  0.70140000  0.28840000  1.0
  Pb  Pb6  1  0.50000000  0.00000000  0.00010000  1.0
  Pb  Pb7  1  0.80190000  0.19820000  0.32583000  1.0
  Pb  Pb8  1  0.19810000  0.80180000  0.32583000  1.0
  Pb  Pb9  1  0.00000000  0.50000000  0.99990000  1.0
  Pb  Pb10  1  0.19820000  0.19810000  0.67417000  1.0
  Pb  Pb11  1  0.80180000  0.80190000  0.67417000  1.0
  O  O12  1  0.43340000  0.79940000  0.83840000  1.0
  O  O13  1  0.55080000  0.67290000  0.42100000  1.0
  O  O14  1  0.13420000  0.14850000  0.90770000  1.0
  O  O15  1  0.79940000  0.56660000  0.16160000  1.0
  O  O16  1  0.16290000  0.50540000  0.73870000  1.0
  O  O17  1  0.86260000  0.13830000  0.65360000  1.0
  O  O18  1  0.86580000  0.85150000  0.90770000  1.0
  O  O19  1  0.85150000  0.13420000  0.09230000  1.0
  O  O20  1  0.50540000  0.83710000  0.26130000  1.0
  O  O21  1  0.56660000  0.20060000  0.83840000  1.0
  O  O22  1  0.67290000  0.44920000  0.57900000  1.0
  O  O23  1  0.32710000  0.55080000  0.57900000  1.0
  O  O24  1  0.86170000  0.86260000  0.34640000  1.0
  O  O25  1  0.83710000  0.49460000  0.73870000  1.0
  O  O26  1  0.49460000  0.16290000  0.26130000  1.0
  O  O27  1  0.13740000  0.86170000  0.65360000  1.0
  O  O28  1  0.13830000  0.13740000  0.34640000  1.0
  O  O29  1  0.44920000  0.32710000  0.42100000  1.0
  O  O30  1  0.20060000  0.43340000  0.16160000  1.0
  O  O31  1  0.14850000  0.86580000  0.09230000  1.0
