# generated using pymatgen
data_Na3LiV4O12
_symmetry_space_group_name_H-M   'P 1'
_cell_length_a   5.92494260
_cell_length_b   7.09178391
_cell_length_c   7.09178391
_cell_angle_alpha   83.26401238
_cell_angle_beta   75.74080088
_cell_angle_gamma   75.74080088
_symmetry_Int_Tables_number   1
_chemical_formula_structural   Na3LiV4O12
_chemical_formula_sum   'Na3 Li1 V4 O12'
_cell_volume   279.39822248
_cell_formula_units_Z   1
loop_
 _symmetry_equiv_pos_site_id
 _symmetry_equiv_pos_as_xyz
  1  'x, y, z'
loop_
 _atom_site_type_symbol
 _atom_site_label
 _atom_site_symmetry_multiplicity
 _atom_site_fract_x
 _atom_site_fract_y
 _atom_site_fract_z
 _atom_site_occupancy
  Li  Li0  1  0.00000000  0.91015085  0.08984915  1
  Na  Na1  1  0.00000000  0.28863541  0.71136459  1
  Na  Na2  1  0.50000000  0.71149801  0.28850199  1
  Na  Na3  1  0.50000000  0.08449345  0.91550655  1
  O  O4  1  0.78449685  0.65333765  0.64382177  1
  O  O5  1  0.21550315  0.35617823  0.34666235  1
  O  O6  1  0.71341053  0.35178486  0.35869532  1
  O  O7  1  0.28658947  0.64130468  0.64821514  1
  O  O8  1  0.05977002  0.89797210  0.38677144  1
  O  O9  1  0.94022998  0.61322856  0.10202790  1
  O  O10  1  0.43524664  0.10068155  0.60543306  1
  O  O11  1  0.56475336  0.39456694  0.89931845  1
  O  O12  1  0.91680098  0.97338419  0.78085873  1
  O  O13  1  0.08319902  0.21914127  0.02661581  1
  O  O14  1  0.60552680  0.01991327  0.22132061  1
  O  O15  1  0.39447320  0.77867939  0.98008673  1
  V  V16  1  0.00431773  0.80205399  0.61637080  1
  V  V17  1  0.99568227  0.38362920  0.19794601  1
  V  V18  1  0.49993855  0.19808747  0.37872106  1
  V  V19  1  0.50006145  0.62127894  0.80191253  1
