# generated using pymatgen
data_KAlP2S7
_symmetry_space_group_name_H-M   'P 1'
_cell_length_a   6.29319285
_cell_length_b   6.40221404
_cell_length_c   6.40221404
_cell_angle_alpha   96.76301731
_cell_angle_beta   94.96373150
_cell_angle_gamma   94.96373150
_symmetry_Int_Tables_number   1
_chemical_formula_structural   KAlP2S7
_chemical_formula_sum   'K1 Al1 P2 S7'
_cell_volume   253.96969319
_cell_formula_units_Z   1
loop_
 _symmetry_equiv_pos_site_id
 _symmetry_equiv_pos_as_xyz
  1  'x, y, z'
loop_
 _atom_site_type_symbol
 _atom_site_label
 _atom_site_symmetry_multiplicity
 _atom_site_fract_x
 _atom_site_fract_y
 _atom_site_fract_z
 _atom_site_occupancy
  Al  Al0  1  0.00000000  0.50882895  0.49117105  1
  K  K1  1  0.50000000  0.91033203  0.08966797  1
  P  P2  1  0.92230816  0.95907982  0.63424010  1
  P  P3  1  0.07769184  0.36575990  0.04092018  1
  S  S4  1  0.00000000  0.03110378  0.96889622  1
  S  S5  1  0.23066152  0.48457769  0.80967918  1
  S  S6  1  0.71677075  0.69515947  0.62671171  1
  S  S7  1  0.28322925  0.37328829  0.30484053  1
  S  S8  1  0.18141085  0.86240243  0.49935318  1
  S  S9  1  0.81858915  0.50064682  0.13759757  1
  S  S10  1  0.76933848  0.19032082  0.51542231  1
