# generated using pymatgen
data_GaPH9C3Cl3O
_symmetry_space_group_name_H-M   'P 1'
_cell_length_a   6.92883753
_cell_length_b   6.92883753
_cell_length_c   13.04399288
_cell_angle_alpha   99.01474489
_cell_angle_beta   99.01474489
_cell_angle_gamma   103.22741139
_symmetry_Int_Tables_number   1
_chemical_formula_structural   GaPH9C3Cl3O
_chemical_formula_sum   'Ga2 P2 H18 C6 Cl6 O2'
_cell_volume   589.88550137
_cell_formula_units_Z   2
loop_
 _symmetry_equiv_pos_site_id
 _symmetry_equiv_pos_as_xyz
  1  'x, y, z'
loop_
 _atom_site_type_symbol
 _atom_site_label
 _atom_site_symmetry_multiplicity
 _atom_site_fract_x
 _atom_site_fract_y
 _atom_site_fract_z
 _atom_site_occupancy
  C  C0  1  0.08431900  0.53432500  0.61970500  1
  C  C1  1  0.53432500  0.08431900  0.11970500  1
  C  C2  1  0.49767500  0.69909500  0.73836000  1
  C  C3  1  0.69909500  0.49767500  0.23836000  1
  C  C4  1  0.18735300  0.90741100  0.77862300  1
  C  C5  1  0.90741100  0.18735300  0.27862300  1
  Cl  Cl6  1  0.76388800  0.91586400  0.52387400  1
  Cl  Cl7  1  0.91586400  0.76388800  0.02387400  1
  Cl  Cl8  1  0.46960900  0.27150500  0.47884200  1
  Cl  Cl9  1  0.27150500  0.46960900  0.97884200  1
  Cl  Cl10  1  0.28609400  0.75823500  0.33676600  1
  Cl  Cl11  1  0.75823500  0.28609400  0.83676600  1
  Ga  Ga12  1  0.45838100  0.95569500  0.48630000  1
  Ga  Ga13  1  0.95569500  0.45838100  0.98630000  1
  H  H14  1  0.13100200  0.45209800  0.55296200  1
  H  H15  1  0.45209800  0.13100200  0.05296200  1
  H  H16  1  0.06271000  0.43829100  0.67865000  1
  H  H17  1  0.43829100  0.06271000  0.17865000  1
  H  H18  1  0.94103500  0.56944000  0.59148800  1
  H  H19  1  0.56944000  0.94103500  0.09148800  1
  H  H20  1  0.60725500  0.83554700  0.78686600  1
  H  H21  1  0.83554700  0.60725500  0.28686600  1
  H  H22  1  0.45620600  0.58954200  0.78877800  1
  H  H23  1  0.58954200  0.45620600  0.28877800  1
  H  H24  1  0.56525800  0.63074100  0.67608000  1
  H  H25  1  0.63074100  0.56525800  0.17608000  1
  H  H26  1  0.04885300  0.94311600  0.74277500  1
  H  H27  1  0.94311600  0.04885300  0.24277500  1
  H  H28  1  0.15510000  0.81995000  0.84007700  1
  H  H29  1  0.81995000  0.15510000  0.34007700  1
  H  H30  1  0.30347300  0.04889800  0.81452900  1
  H  H31  1  0.04889800  0.30347300  0.31452900  1
  O  O32  1  0.32030000  0.89589500  0.59483000  1
  O  O33  1  0.89589500  0.32030000  0.09483000  1
  P  P34  1  0.27659000  0.76429000  0.67809600  1
  P  P35  1  0.76429000  0.27659000  0.17809600  1
