# generated using pymatgen
data_PSBr
_symmetry_space_group_name_H-M   'P 1'
_cell_length_a   4.14271171
_cell_length_b   8.31792626
_cell_length_c   8.82552113
_cell_angle_alpha   90.00000000
_cell_angle_beta   90.00000000
_cell_angle_gamma   90.00000000
_symmetry_Int_Tables_number   1
_chemical_formula_structural   PSBr
_chemical_formula_sum   'P4 S4 Br4'
_cell_volume   304.11660734
_cell_formula_units_Z   4
loop_
 _symmetry_equiv_pos_site_id
 _symmetry_equiv_pos_as_xyz
  1  'x, y, z'
loop_
 _atom_site_type_symbol
 _atom_site_label
 _atom_site_symmetry_multiplicity
 _atom_site_fract_x
 _atom_site_fract_y
 _atom_site_fract_z
 _atom_site_occupancy
  P  P0  1  0.62009749  0.58532240  0.62228951  1
  P  P1  1  0.12009749  0.41467760  0.37771049  1
  P  P2  1  0.12009749  0.91467760  0.12228951  1
  P  P3  1  0.62009749  0.08532240  0.87771049  1
  S  S4  1  0.26297746  0.64731455  0.45802151  1
  S  S5  1  0.26297746  0.14731455  0.04197849  1
  S  S6  1  0.76297746  0.85268545  0.95802151  1
  S  S7  1  0.76297746  0.35268545  0.54197849  1
  Br  Br8  1  0.33072505  0.48665243  0.82381364  1
  Br  Br9  1  0.33072505  0.98665243  0.67618636  1
  Br  Br10  1  0.83072505  0.01334757  0.32381364  1
  Br  Br11  1  0.83072505  0.51334757  0.17618636  1
