# generated using pymatgen
data_Na2SiSnSe4
_symmetry_space_group_name_H-M   'P 1'
_cell_length_a   6.10131842
_cell_length_b   6.10149788
_cell_length_c   6.57810298
_cell_angle_alpha   105.05978003
_cell_angle_beta   113.59751044
_cell_angle_gamma   106.74479449
_symmetry_Int_Tables_number   1
_chemical_formula_structural   Na2SiSnSe4
_chemical_formula_sum   'Na2 Si1 Sn1 Se4'
_cell_volume   194.26321857
_cell_formula_units_Z   1
loop_
 _symmetry_equiv_pos_site_id
 _symmetry_equiv_pos_as_xyz
  1  'x, y, z'
loop_
 _atom_site_type_symbol
 _atom_site_label
 _atom_site_symmetry_multiplicity
 _atom_site_fract_x
 _atom_site_fract_y
 _atom_site_fract_z
 _atom_site_occupancy
  Na  Na0  1  0.52313631  0.08614261  0.56250715  1
  Na  Na1  1  0.42261134  0.48494162  0.06268130  1
  Si  Si2  1  0.03240020  0.59473603  0.56252892  1
  Sn  Sn3  1  0.93241568  0.99505129  0.06217375  1
  Se  Se4  1  0.40271018  0.92257174  0.92476532  1
  Se  Se5  1  0.02413904  0.21614097  0.55183395  1
  Se  Se6  1  0.99814661  0.60304824  0.20037895  1
  Se  Se7  1  0.66444064  0.59736650  0.57312965  1
