# generated using pymatgen
data_AgHgAsSe3
_symmetry_space_group_name_H-M   'P 1'
_cell_length_a   6.77760684
_cell_length_b   6.77760684
_cell_length_c   7.76928621
_cell_angle_alpha   103.16733460
_cell_angle_beta   103.16733460
_cell_angle_gamma   117.65607720
_symmetry_Int_Tables_number   1
_chemical_formula_structural   AgHgAsSe3
_chemical_formula_sum   'Ag2 Hg2 As2 Se6'
_cell_volume   283.85602846
_cell_formula_units_Z   2
loop_
 _symmetry_equiv_pos_site_id
 _symmetry_equiv_pos_as_xyz
  1  'x, y, z'
loop_
 _atom_site_type_symbol
 _atom_site_label
 _atom_site_symmetry_multiplicity
 _atom_site_fract_x
 _atom_site_fract_y
 _atom_site_fract_z
 _atom_site_occupancy
  Ag  Ag0  1  0.75773176  0.23656883  0.74920582  1
  Ag  Ag1  1  0.23656883  0.75773176  0.24920582  1
  As  As2  1  0.11000813  0.91890807  0.77351733  1
  As  As3  1  0.91890807  0.11000813  0.27351733  1
  Hg  Hg4  1  0.43187972  0.57659874  0.78642073  1
  Hg  Hg5  1  0.57659874  0.43187972  0.28642073  1
  Se  Se6  1  0.91263389  0.67854441  0.94307987  1
  Se  Se7  1  0.67854441  0.91263389  0.44307987  1
  Se  Se8  1  0.31383592  0.20604890  0.48432685  1
  Se  Se9  1  0.00180399  0.50943767  0.43104941  1
  Se  Se10  1  0.50943767  0.00180399  0.93104941  1
  Se  Se11  1  0.20604890  0.31383592  0.98432685  1
