# generated using pymatgen
data_Re2PbO8
_symmetry_space_group_name_H-M   'P 1'
_cell_length_a   11.27600000
_cell_length_b   11.27600000
_cell_length_c   4.59300000
_cell_angle_alpha   90.00000000
_cell_angle_beta   90.00000000
_cell_angle_gamma   120.00000000
_symmetry_Int_Tables_number   1
_chemical_formula_structural   Re2PbO8
_chemical_formula_sum   'Re6 Pb3 O24'
_cell_volume   505.75153727
_cell_formula_units_Z   3
loop_
 _symmetry_equiv_pos_site_id
 _symmetry_equiv_pos_as_xyz
  1  'x, y, z'
loop_
 _atom_site_type_symbol
 _atom_site_label
 _atom_site_symmetry_multiplicity
 _atom_site_fract_x
 _atom_site_fract_y
 _atom_site_fract_z
 _atom_site_occupancy
  Re  Re0  1  0.38050000  0.00000000  0.98290000  1.0
  Re  Re1  1  0.00000000  0.38050000  0.98290000  1.0
  Re  Re2  1  0.61950000  0.61950000  0.98290000  1.0
  Re  Re3  1  0.28720000  0.28720000  0.48280000  1.0
  Re  Re4  1  -0.00000000  0.71280000  0.48280000  1.0
  Re  Re5  1  0.71280000  0.00000000  0.48280000  1.0
  Pb  Pb6  1  0.00000000  0.00000000  0.00000000  1.0
  Pb  Pb7  1  0.33333333  0.66666667  0.47080000  1.0
  Pb  Pb8  1  0.66666667  0.33333333  0.47080000  1.0
  O  O9  1  0.60530000  0.60530000  0.60660000  1.0
  O  O10  1  -0.00000000  0.39470000  0.60660000  1.0
  O  O11  1  0.39470000  0.00000000  0.60660000  1.0
  O  O12  1  0.14960000  0.14960000  0.60650000  1.0
  O  O13  1  -0.00000000  0.85040000  0.60650000  1.0
  O  O14  1  0.85040000  0.00000000  0.60650000  1.0
  O  O15  1  0.28530000  0.44070000  0.61090000  1.0
  O  O16  1  0.55930000  0.84460000  0.61090000  1.0
  O  O17  1  0.15540000  0.71470000  0.61090000  1.0
  O  O18  1  0.22680000  0.00000000  0.11880000  1.0
  O  O19  1  -0.00000000  0.22680000  0.11880000  1.0
  O  O20  1  0.77320000  0.77320000  0.11880000  1.0
  O  O21  1  0.52190000  0.14000000  0.08930000  1.0
  O  O22  1  0.86000000  0.38190000  0.08930000  1.0
  O  O23  1  0.61810000  0.47810000  0.08930000  1.0
  O  O24  1  0.14000000  0.52190000  0.08930000  1.0
  O  O25  1  0.38190000  0.86000000  0.08930000  1.0
  O  O26  1  0.47810000  0.61810000  0.08930000  1.0
  O  O27  1  0.72740000  0.00000000  0.12150000  1.0
  O  O28  1  -0.00000000  0.72740000  0.12150000  1.0
  O  O29  1  0.27260000  0.27260000  0.12150000  1.0
  O  O30  1  0.71470000  0.15540000  0.61090000  1.0
  O  O31  1  0.84460000  0.55930000  0.61090000  1.0
  O  O32  1  0.44070000  0.28530000  0.61090000  1.0
