# generated using pymatgen
data_KHfPCO7
_symmetry_space_group_name_H-M   'P 1'
_cell_length_a   5.78318300
_cell_length_b   6.64734400
_cell_length_c   9.97619303
_cell_angle_alpha   90.00000000
_cell_angle_beta   90.92463461
_cell_angle_gamma   90.00000000
_symmetry_Int_Tables_number   1
_chemical_formula_structural   KHfPCO7
_chemical_formula_sum   'K2 Hf2 P2 C2 O14'
_cell_volume   383.46292305
_cell_formula_units_Z   2
loop_
 _symmetry_equiv_pos_site_id
 _symmetry_equiv_pos_as_xyz
  1  'x, y, z'
loop_
 _atom_site_type_symbol
 _atom_site_label
 _atom_site_symmetry_multiplicity
 _atom_site_fract_x
 _atom_site_fract_y
 _atom_site_fract_z
 _atom_site_occupancy
  K  K0  1  0.74750300  0.44951200  0.21786700  1
  K  K1  1  0.25249700  0.94951200  0.78213300  1
  Hf  Hf2  1  0.22242700  0.77498600  0.34658000  1
  Hf  Hf3  1  0.77757300  0.27498600  0.65342000  1
  P  P4  1  0.27052800  0.26919000  0.44876400  1
  P  P5  1  0.72947200  0.76919000  0.55123600  1
  C  C6  1  0.27865400  0.73178400  0.09497600  1
  C  C7  1  0.72134600  0.23178400  0.90502400  1
  O  O8  1  0.69373500  0.20517500  0.02594300  1
  O  O9  1  0.07242900  0.74275900  0.15567900  1
  O  O10  1  0.45104500  0.75214000  0.18651700  1
  O  O11  1  0.23042300  0.08251400  0.35908500  1
  O  O12  1  0.22905600  0.45781200  0.36207900  1
  O  O13  1  0.90083800  0.76294400  0.43340300  1
  O  O14  1  0.52096500  0.26903400  0.50630600  1
  O  O15  1  0.47903500  0.76903400  0.49369400  1
  O  O16  1  0.09916200  0.26294400  0.56659700  1
  O  O17  1  0.77094400  0.95781200  0.63792100  1
  O  O18  1  0.76957700  0.58251400  0.64091500  1
  O  O19  1  0.54895500  0.25214000  0.81348300  1
  O  O20  1  0.92757100  0.24275900  0.84432100  1
  O  O21  1  0.30626500  0.70517500  0.97405700  1
