# generated using pymatgen
data_KLiH4SeO5
_symmetry_space_group_name_H-M   'P 1'
_cell_length_a   4.43578480
_cell_length_b   5.77638946
_cell_length_c   6.19441964
_cell_angle_alpha   110.75560233
_cell_angle_beta   104.06882505
_cell_angle_gamma   88.19743201
_symmetry_Int_Tables_number   1
_chemical_formula_structural   KLiH4SeO5
_chemical_formula_sum   'K1 Li1 H4 Se1 O5'
_cell_volume   143.70395718
_cell_formula_units_Z   1
loop_
 _symmetry_equiv_pos_site_id
 _symmetry_equiv_pos_as_xyz
  1  'x, y, z'
loop_
 _atom_site_type_symbol
 _atom_site_label
 _atom_site_symmetry_multiplicity
 _atom_site_fract_x
 _atom_site_fract_y
 _atom_site_fract_z
 _atom_site_occupancy
  K  K0  1  0.93504670  0.90074559  0.93044817  1
  Li  Li1  1  0.63264811  0.69969531  0.34738637  1
  H  H2  1  0.23741225  0.65586799  0.55145643  1
  H  H3  1  0.20588148  0.91073233  0.51981324  1
  H  H4  1  0.57906362  0.45737880  0.93807518  1
  H  H5  1  0.21441799  0.45517597  0.93915937  1
  Se  Se6  1  0.71819231  0.26333042  0.51717480  1
  O  O7  1  0.41936083  0.55649346  0.01883243  1
  O  O8  1  0.91155195  0.48492124  0.47067481  1
  O  O9  1  0.88735495  0.99441848  0.38728249  1
  O  O10  1  0.37181408  0.80666925  0.57935724  1
  O  O11  1  0.86343274  0.32359217  0.81837848  1
