# generated using pymatgen
data_RbPH2SO3
_symmetry_space_group_name_H-M   'P 1'
_cell_length_a   4.55777091
_cell_length_b   4.55777091
_cell_length_c   6.05808876
_cell_angle_alpha   77.74045691
_cell_angle_beta   77.74045691
_cell_angle_gamma   88.03671839
_symmetry_Int_Tables_number   1
_chemical_formula_structural   RbPH2SO3
_chemical_formula_sum   'Rb1 P1 H2 S1 O3'
_cell_volume   120.16440183
_cell_formula_units_Z   1
loop_
 _symmetry_equiv_pos_site_id
 _symmetry_equiv_pos_as_xyz
  1  'x, y, z'
loop_
 _atom_site_type_symbol
 _atom_site_label
 _atom_site_symmetry_multiplicity
 _atom_site_fract_x
 _atom_site_fract_y
 _atom_site_fract_z
 _atom_site_occupancy
  H  H0  1  0.79466429  0.16262867  0.18689780  1
  H  H1  1  0.16262867  0.79466429  0.18689780  1
  O  O2  1  0.89102168  0.89102168  0.11030696  1
  O  O3  1  0.74195343  0.34994942  0.26527534  1
  O  O4  1  0.34994942  0.74195343  0.26527534  1
  P  P5  1  0.65317134  0.65317134  0.11324048  1
  Rb  Rb6  1  0.15970491  0.15970491  0.61133950  1
  S  S7  1  0.61273626  0.61273626  0.80275779  1
