# generated using pymatgen
data_Si3(BiO3)4
_symmetry_space_group_name_H-M   'P 1'
_cell_length_a   8.89225048
_cell_length_b   8.89225048
_cell_length_c   8.89225048
_cell_angle_alpha   109.47122063
_cell_angle_beta   109.47122063
_cell_angle_gamma   109.47122063
_symmetry_Int_Tables_number   1
_chemical_formula_structural   Si3(BiO3)4
_chemical_formula_sum   'Si6 Bi8 O24'
_cell_volume   541.26902168
_cell_formula_units_Z   2
loop_
 _symmetry_equiv_pos_site_id
 _symmetry_equiv_pos_as_xyz
  1  'x, y, z'
loop_
 _atom_site_type_symbol
 _atom_site_label
 _atom_site_symmetry_multiplicity
 _atom_site_fract_x
 _atom_site_fract_y
 _atom_site_fract_z
 _atom_site_occupancy
  Bi  Bi0  1  0.33667530  0.83667530  0.33667530  1
  Bi  Bi1  1  1.00000000  0.66332470  0.50000000  1
  Bi  Bi2  1  1.00000000  0.16332470  0.50000000  1
  Bi  Bi3  1  0.66332470  1.00000000  1.00000000  1
  Bi  Bi4  1  0.50000000  0.50000000  0.66332470  1
  Bi  Bi5  1  0.50000000  0.50000000  0.16332470  1
  Bi  Bi6  1  0.83667530  0.33667530  0.83667530  1
  Bi  Bi7  1  0.16332470  -0.00000000  1.00000000  1
  O  O8  1  0.41937367  0.07110592  0.22812318  1
  O  O9  1  0.84826775  0.92889408  0.15701726  1
  O  O10  1  0.92889408  0.84826775  0.65701726  1
  O  O11  1  0.69125049  0.84298274  0.77187682  1
  O  O12  1  0.27187682  0.34298274  0.19125049  1
  O  O13  1  0.91937367  0.22812318  0.07110592  1
  O  O14  1  0.77187682  0.19125049  0.34298274  1
  O  O15  1  0.15701726  0.34826775  0.42889408  1
  O  O16  1  0.84298274  0.69125049  0.27187682  1
  O  O17  1  0.65173225  0.30874951  0.58062633  1
  O  O18  1  0.08062633  0.80874951  0.15173225  1
  O  O19  1  0.22812318  0.91937367  0.57110592  1
  O  O20  1  0.42889408  0.65701726  0.84826775  1
  O  O21  1  0.72812318  0.57110592  0.91937367  1
  O  O22  1  0.58062633  0.15173225  0.80874951  1
  O  O23  1  0.07110592  0.41937367  0.72812318  1
  O  O24  1  0.34298274  0.27187682  0.69125049  1
  O  O25  1  0.15173225  0.58062633  0.30874951  1
  O  O26  1  0.34826775  0.15701726  0.92889408  1
  O  O27  1  0.80874951  0.08062633  0.65173225  1
  O  O28  1  0.65701726  0.42889408  0.34826775  1
  O  O29  1  0.30874951  0.65173225  0.08062633  1
  O  O30  1  0.19125049  0.77187682  0.84298274  1
  O  O31  1  0.57110592  0.72812318  0.41937367  1
  Si  Si32  1  0.25000000  0.62500000  0.87500000  1
  Si  Si33  1  0.62500000  0.25000000  0.37500000  1
  Si  Si34  1  0.37500000  0.12500000  0.75000000  1
  Si  Si35  1  0.75000000  0.87500000  0.62500000  1
  Si  Si36  1  0.12500000  0.37500000  0.25000000  1
  Si  Si37  1  0.87500000  0.75000000  0.12500000  1
