# generated using pymatgen
data_Bi2SeO5
_symmetry_space_group_name_H-M   'P 1'
_cell_length_a   5.48700000
_cell_length_b   8.57284528
_cell_length_c   11.42500000
_cell_angle_alpha   90.00000000
_cell_angle_beta   90.00000000
_cell_angle_gamma   108.66426175
_symmetry_Int_Tables_number   1
_chemical_formula_structural   Bi2SeO5
_chemical_formula_sum   'Bi8 Se4 O20'
_cell_volume   509.15985477
_cell_formula_units_Z   4
loop_
 _symmetry_equiv_pos_site_id
 _symmetry_equiv_pos_as_xyz
  1  'x, y, z'
loop_
 _atom_site_type_symbol
 _atom_site_label
 _atom_site_symmetry_multiplicity
 _atom_site_fract_x
 _atom_site_fract_y
 _atom_site_fract_z
 _atom_site_occupancy
  Bi  Bi0  1  0.72010000  0.50000000  0.37888000  1.0
  Bi  Bi1  1  0.22010000  0.50000000  0.62112000  1.0
  Bi  Bi2  1  0.25594000  0.50000000  0.12332000  1.0
  Bi  Bi3  1  0.75594000  0.50000000  0.87668000  1.0
  Bi  Bi4  1  0.92359000  0.82914000  0.61062000  1.0
  Bi  Bi5  1  0.09445000  0.17086000  0.38938000  1.0
  Bi  Bi6  1  0.42359000  0.82914000  0.38938000  1.0
  Bi  Bi7  1  0.59445000  0.17086000  0.61062000  1.0
  Se  Se28  1  0.42904000  0.82668000  0.85816000  1.0
  Se  Se29  1  0.60236000  0.17332000  0.14184000  1.0
  Se  Se30  1  0.92904000  0.82668000  0.14184000  1.0
  Se  Se31  1  0.10236000  0.17332000  0.85816000  1.0
  O  O8  1  0.56800000  0.69000000  0.80460000  1.0
  O  O9  1  0.87800000  0.31000000  0.19540000  1.0
  O  O10  1  0.06800000  0.69000000  0.19540000  1.0
  O  O11  1  0.37800000  0.31000000  0.80460000  1.0
  O  O12  1  0.11910000  0.67620000  0.51230000  1.0
  O  O13  1  0.44290000  0.32380000  0.48770000  1.0
  O  O14  1  0.61910000  0.67620000  0.48770000  1.0
  O  O15  1  0.94290000  0.32380000  0.51230000  1.0
  O  O16  1  0.35700000  0.50000000  0.29730000  1.0
  O  O17  1  0.85700000  0.50000000  0.70270000  1.0
  O  O18  1  0.15530000  0.70260000  0.91910000  1.0
  O  O19  1  0.45270000  0.29740000  0.08090000  1.0
  O  O20  1  0.94650000  0.11300000  0.73120000  1.0
  O  O21  1  0.83350000  0.88700000  0.26880000  1.0
  O  O22  1  0.44650000  0.11300000  0.26880000  1.0
  O  O23  1  0.33350000  0.88700000  0.73120000  1.0
  O  O24  1  0.71900000  0.00000000  0.50000000  1.0
  O  O25  1  0.21900000  0.00000000  0.50000000  1.0
  O  O26  1  0.95270000  0.29740000  0.91910000  1.0
  O  O27  1  0.65530000  0.70260000  0.08090000  1.0
