# generated using pymatgen
data_KIO3
_symmetry_space_group_name_H-M   'P 1'
_cell_length_a   7.68972020
_cell_length_b   7.68972020
_cell_length_c   7.68972020
_cell_angle_alpha   109.31506030
_cell_angle_beta   109.31506030
_cell_angle_gamma   109.31506030
_symmetry_Int_Tables_number   1
_chemical_formula_structural   KIO3
_chemical_formula_sum   'K4 I4 O12'
_cell_volume   352.04282936
_cell_formula_units_Z   4
loop_
 _symmetry_equiv_pos_site_id
 _symmetry_equiv_pos_as_xyz
  1  'x, y, z'
loop_
 _atom_site_type_symbol
 _atom_site_label
 _atom_site_symmetry_multiplicity
 _atom_site_fract_x
 _atom_site_fract_y
 _atom_site_fract_z
 _atom_site_occupancy
  I  I0  1  0.45455327  0.45455327  0.45455327  1
  I  I1  1  0.94974464  0.96822214  0.46004371  1
  I  I2  1  0.96822214  0.46004371  0.94974464  1
  I  I3  1  0.46004371  0.94974464  0.96822214  1
  K  K4  1  0.48100181  0.45256177  0.95355047  1
  K  K5  1  0.45256177  0.95355047  0.48100181  1
  K  K6  1  0.95355047  0.48100181  0.45256177  1
  K  K7  1  0.96261499  0.96261499  0.96261499  1
  O  O8  1  0.80148768  0.05200852  0.30151075  1
  O  O9  1  0.05200852  0.30151075  0.80148768  1
  O  O10  1  0.30151075  0.80148768  0.05200852  1
  O  O11  1  0.92989508  0.75062438  0.24995883  1
  O  O12  1  0.75062438  0.24995883  0.92989508  1
  O  O13  1  0.24995883  0.92989508  0.75062438  1
  O  O14  1  0.75002537  0.81494828  0.50542076  1
  O  O15  1  0.81494828  0.50542076  0.75002537  1
  O  O16  1  0.50542076  0.75002537  0.81494828  1
  O  O17  1  0.48609499  0.30571382  0.23978774  1
  O  O18  1  0.30571382  0.23978774  0.48609499  1
  O  O19  1  0.23978774  0.48609499  0.30571382  1
