# generated using pymatgen
data_HgIBr
_symmetry_space_group_name_H-M   'P 1'
_cell_length_a   4.36300151
_cell_length_b   4.36300151
_cell_length_c   13.22607505
_cell_angle_alpha   90.00000000
_cell_angle_beta   90.00000000
_cell_angle_gamma   109.50207015
_symmetry_Int_Tables_number   1
_chemical_formula_structural   HgIBr
_chemical_formula_sum   'Hg2 I2 Br2'
_cell_volume   237.32457093
_cell_formula_units_Z   2
loop_
 _symmetry_equiv_pos_site_id
 _symmetry_equiv_pos_as_xyz
  1  'x, y, z'
loop_
 _atom_site_type_symbol
 _atom_site_label
 _atom_site_symmetry_multiplicity
 _atom_site_fract_x
 _atom_site_fract_y
 _atom_site_fract_z
 _atom_site_occupancy
  Br  Br0  1  0.56817029  0.43182971  0.62317894  1
  Br  Br1  1  0.43182971  0.56817029  0.12317894  1
  Hg  Hg2  1  0.82972436  0.17027564  0.49878171  1
  Hg  Hg3  1  0.17027564  0.82972436  0.99878171  1
  I  I4  1  0.89450345  0.10549655  0.86604035  1
  I  I5  1  0.10549655  0.89450345  0.36604035  1
