# generated using pymatgen
data_NaNbS6
_symmetry_space_group_name_H-M   'P 1'
_cell_length_a   7.25568413
_cell_length_b   7.42668174
_cell_length_c   7.42668174
_cell_angle_alpha   119.10023062
_cell_angle_beta   93.77841273
_cell_angle_gamma   93.77841273
_symmetry_Int_Tables_number   1
_chemical_formula_structural   NaNbS6
_chemical_formula_sum   'Na2 Nb2 S12'
_cell_volume   346.70674787
_cell_formula_units_Z   2
loop_
 _symmetry_equiv_pos_site_id
 _symmetry_equiv_pos_as_xyz
  1  'x, y, z'
loop_
 _atom_site_type_symbol
 _atom_site_label
 _atom_site_symmetry_multiplicity
 _atom_site_fract_x
 _atom_site_fract_y
 _atom_site_fract_z
 _atom_site_occupancy
  Na  Na0  1  0.99473306  0.67274110  0.33347605  1
  Na  Na1  1  0.49473306  0.33347605  0.67274110  1
  Nb  Nb2  1  0.74187137  0.98122858  0.00868338  1
  Nb  Nb3  1  0.24187137  0.00868338  0.98122858  1
  S  S4  1  0.47746297  0.76114107  0.03919427  1
  S  S5  1  0.97746297  0.03919427  0.76114107  1
  S  S6  1  0.79498249  0.63701911  0.69656886  1
  S  S7  1  0.29498249  0.69656886  0.63701911  1
  S  S8  1  0.98343857  0.73262180  0.95143549  1
  S  S9  1  0.48343857  0.95143549  0.73262180  1
  S  S10  1  0.66731163  0.90821651  0.29789924  1
  S  S11  1  0.16731163  0.29789924  0.90821651  1
  S  S12  1  0.71116359  0.33433742  0.05345854  1
  S  S13  1  0.21116359  0.05345854  0.33433742  1
  S  S14  1  0.52641533  0.27446797  0.22003061  1
  S  S15  1  0.02641533  0.22003061  0.27446797  1
