# generated using pymatgen
data_P2PtS6
_symmetry_space_group_name_H-M   'P 1'
_cell_length_a   5.73416423
_cell_length_b   5.73416423
_cell_length_c   6.76557924
_cell_angle_alpha   97.87709720
_cell_angle_beta   97.87709720
_cell_angle_gamma   119.93921565
_symmetry_Int_Tables_number   1
_chemical_formula_structural   P2PtS6
_chemical_formula_sum   'P2 Pt1 S6'
_cell_volume   185.40200606
_cell_formula_units_Z   1
loop_
 _symmetry_equiv_pos_site_id
 _symmetry_equiv_pos_as_xyz
  1  'x, y, z'
loop_
 _atom_site_type_symbol
 _atom_site_label
 _atom_site_symmetry_multiplicity
 _atom_site_fract_x
 _atom_site_fract_y
 _atom_site_fract_z
 _atom_site_occupancy
  P  P0  1  0.94536704  0.94580235  0.33345005  1
  P  P1  1  0.05419765  0.05463296  0.66654995  1
  Pt  Pt2  1  0.33332660  0.66667340  0.50000000  1
  S  S3  1  0.56958759  0.90677671  0.25872142  1
  S  S4  1  0.72602071  0.74060373  0.74056896  1
  S  S5  1  0.09322329  0.43041241  0.74127858  1
  S  S6  1  0.93743037  0.58528670  0.25843786  1
  S  S7  1  0.41471330  0.06256963  0.74156214  1
  S  S8  1  0.25939627  0.27397929  0.25943104  1
