# generated using pymatgen
data_Li2SiSnSe4
_symmetry_space_group_name_H-M   'P 1'
_cell_length_a   6.14583822
_cell_length_b   6.20407313
_cell_length_c   6.20407313
_cell_angle_alpha   100.58169747
_cell_angle_beta   113.49580931
_cell_angle_gamma   113.49580931
_symmetry_Int_Tables_number   1
_chemical_formula_structural   Li2SiSnSe4
_chemical_formula_sum   'Li2 Si1 Sn1 Se4'
_cell_volume   181.70333836
_cell_formula_units_Z   1
loop_
 _symmetry_equiv_pos_site_id
 _symmetry_equiv_pos_as_xyz
  1  'x, y, z'
loop_
 _atom_site_type_symbol
 _atom_site_label
 _atom_site_symmetry_multiplicity
 _atom_site_fract_x
 _atom_site_fract_y
 _atom_site_fract_z
 _atom_site_occupancy
  Li  Li0  1  0.49659988  0.74960472  0.24776041  1
  Li  Li1  1  0.49659988  0.24776041  0.74960472  1
  Se  Se2  1  0.41362653  0.85978112  0.85978112  1
  Se  Se3  1  0.99485624  0.53413341  0.13930848  1
  Se  Se4  1  0.99485624  0.13930848  0.53413341  1
  Se  Se5  1  0.63593529  0.49926909  0.49926909  1
  Si  Si6  1  0.01434455  0.50686857  0.50686857  1
  Sn  Sn7  1  0.95341538  0.96337821  0.96337821  1
