# generated using pymatgen
data_MgTl2SiTe4
_symmetry_space_group_name_H-M   'P 1'
_cell_length_a   6.83823513
_cell_length_b   6.83823513
_cell_length_c   6.83823513
_cell_angle_alpha   104.86788548
_cell_angle_beta   104.86788548
_cell_angle_gamma   119.13163917
_symmetry_Int_Tables_number   1
_chemical_formula_structural   MgTl2SiTe4
_chemical_formula_sum   'Mg1 Tl2 Si1 Te4'
_cell_volume   240.83002686
_cell_formula_units_Z   1
loop_
 _symmetry_equiv_pos_site_id
 _symmetry_equiv_pos_as_xyz
  1  'x, y, z'
loop_
 _atom_site_type_symbol
 _atom_site_label
 _atom_site_symmetry_multiplicity
 _atom_site_fract_x
 _atom_site_fract_y
 _atom_site_fract_z
 _atom_site_occupancy
  Mg  Mg0  1  0.50000000  0.50000000  -0.00000000  1
  Si  Si1  1  0.00000000  0.00000000  0.00000000  1
  Te  Te2  1  0.04787672  0.39377028  1.00000000  1
  Te  Te3  1  0.60622972  0.60622972  0.65410644  1
  Te  Te4  1  0.95212328  0.95212328  0.34589356  1
  Te  Te5  1  0.39377028  0.04787672  1.00000000  1
  Tl  Tl6  1  1.00000000  0.50000000  0.50000000  1
  Tl  Tl7  1  0.50000000  -0.00000000  0.50000000  1
