# generated using pymatgen
data_TlVTeO5
_symmetry_space_group_name_H-M   'P 1'
_cell_length_a   7.38761737
_cell_length_b   8.80467913
_cell_length_c   7.93323979
_cell_angle_alpha   90.00000000
_cell_angle_beta   90.00000000
_cell_angle_gamma   90.00000000
_symmetry_Int_Tables_number   1
_chemical_formula_structural   TlVTeO5
_chemical_formula_sum   'Tl4 V4 Te4 O20'
_cell_volume   516.02234588
_cell_formula_units_Z   4
loop_
 _symmetry_equiv_pos_site_id
 _symmetry_equiv_pos_as_xyz
  1  'x, y, z'
loop_
 _atom_site_type_symbol
 _atom_site_label
 _atom_site_symmetry_multiplicity
 _atom_site_fract_x
 _atom_site_fract_y
 _atom_site_fract_z
 _atom_site_occupancy
  Tl  Tl0  1  0.97668352  0.10821881  0.90197334  1.0
  Tl  Tl1  1  0.47668352  0.39178119  0.90197334  1.0
  Tl  Tl2  1  0.52331648  0.60821881  0.40197334  1.0
  Tl  Tl3  1  0.02331648  0.89178119  0.40197334  1.0
  V  V4  1  0.27681452  0.75770778  0.78586239  1.0
  V  V5  1  0.22318548  0.25770778  0.28586239  1.0
  V  V6  1  0.77681452  0.74229222  0.78586239  1.0
  V  V7  1  0.72318548  0.24229222  0.28586239  1.0
  Te  Te8  1  0.97677728  0.53260592  0.09761382  1.0
  Te  Te9  1  0.02322272  0.46739408  0.59761382  1.0
  Te  Te10  1  0.52322272  0.03260592  0.59761382  1.0
  Te  Te11  1  0.47677728  0.96739408  0.09761382  1.0
  O  O12  1  0.93493876  0.17539118  0.25963458  1.0
  O  O13  1  0.12774336  0.36467203  0.05096953  1.0
  O  O14  1  0.06506124  0.82460882  0.75963458  1.0
  O  O15  1  0.87225664  0.63532797  0.55096953  1.0
  O  O16  1  0.27508060  0.68200903  0.98092239  1.0
  O  O17  1  0.56506124  0.67539118  0.75963458  1.0
  O  O18  1  0.89856907  0.55085465  0.85956987  1.0
  O  O19  1  0.22491940  0.18200903  0.48092239  1.0
  O  O20  1  0.43493876  0.32460882  0.25963458  1.0
  O  O21  1  0.60143093  0.05085465  0.35956987  1.0
  O  O22  1  0.25458873  0.07822750  0.15045408  1.0
  O  O23  1  0.37225664  0.86467203  0.55096953  1.0
  O  O24  1  0.74541127  0.92177250  0.65045408  1.0
  O  O25  1  0.39856907  0.94914535  0.85956987  1.0
  O  O26  1  0.75458873  0.42177250  0.15045408  1.0
  O  O27  1  0.72491940  0.31799097  0.48092239  1.0
  O  O28  1  0.62774336  0.13532797  0.05096953  1.0
  O  O29  1  0.77508060  0.81799097  0.98092239  1.0
  O  O30  1  0.24541127  0.57822750  0.65045408  1.0
  O  O31  1  0.10143093  0.44914535  0.35956987  1.0
