# generated using pymatgen
data_BaGa4Se7
_symmetry_space_group_name_H-M   'P 1'
_cell_length_a   7.69455763
_cell_length_b   6.59331972
_cell_length_c   14.83515140
_cell_angle_alpha   90.00000000
_cell_angle_beta   121.03208359
_cell_angle_gamma   90.00000000
_symmetry_Int_Tables_number   1
_chemical_formula_structural   BaGa4Se7
_chemical_formula_sum   'Ba2 Ga8 Se14'
_cell_volume   644.91006524
_cell_formula_units_Z   2
loop_
 _symmetry_equiv_pos_site_id
 _symmetry_equiv_pos_as_xyz
  1  'x, y, z'
loop_
 _atom_site_type_symbol
 _atom_site_label
 _atom_site_symmetry_multiplicity
 _atom_site_fract_x
 _atom_site_fract_y
 _atom_site_fract_z
 _atom_site_occupancy
  Ba  Ba0  1  0.56565644  0.64790893  0.54693814  1
  Ba  Ba1  1  0.56565644  0.35209107  0.04693814  1
  Ga  Ga2  1  0.00852739  0.83452038  0.24085403  1
  Ga  Ga3  1  0.00852739  0.16547962  0.74085403  1
  Ga  Ga4  1  0.99968746  0.98972978  0.50033498  1
  Ga  Ga5  1  0.99968746  0.01027022  0.00033498  1
  Ga  Ga6  1  0.49125077  0.84197584  0.22745194  1
  Ga  Ga7  1  0.49125077  0.15802416  0.72745194  1
  Ga  Ga8  1  0.23686491  0.63720974  0.72464297  1
  Ga  Ga9  1  0.23686491  0.36279026  0.22464297  1
  Se  Se10  1  0.78649280  0.85086854  0.05506066  1
  Se  Se11  1  0.78649280  0.14913146  0.55506066  1
  Se  Se12  1  0.00457775  0.63773455  0.53971748  1
  Se  Se13  1  0.00457775  0.36226545  0.03971748  1
  Se  Se14  1  0.32735048  0.89363014  0.04314341  1
  Se  Se15  1  0.32735048  0.10636986  0.54314341  1
  Se  Se16  1  0.32822154  0.98072439  0.80846308  1
  Se  Se17  1  0.32822154  0.01927561  0.30846308  1
  Se  Se18  1  0.10034864  0.48872101  0.82258389  1
  Se  Se19  1  0.10034864  0.51127899  0.32258389  1
  Se  Se20  1  0.56563060  0.50332984  0.77783688  1
  Se  Se21  1  0.56563060  0.49667016  0.27783688  1
  Se  Se22  1  0.81731023  0.97540134  0.80501354  1
  Se  Se23  1  0.81731023  0.02459866  0.30501354  1
