# generated using pymatgen
data_Tl5Sb10As3S22
_symmetry_space_group_name_H-M   'P 1'
_cell_length_a   7.65609811
_cell_length_b   8.86158672
_cell_length_c   18.11446578
_cell_angle_alpha   75.05708948
_cell_angle_beta   78.99503353
_cell_angle_gamma   70.22948445
_symmetry_Int_Tables_number   1
_chemical_formula_structural   Tl5Sb10As3S22
_chemical_formula_sum   'Tl5 Sb10 As3 S22'
_cell_volume   1110.13886312
_cell_formula_units_Z   1
loop_
 _symmetry_equiv_pos_site_id
 _symmetry_equiv_pos_as_xyz
  1  'x, y, z'
loop_
 _atom_site_type_symbol
 _atom_site_label
 _atom_site_symmetry_multiplicity
 _atom_site_fract_x
 _atom_site_fract_y
 _atom_site_fract_z
 _atom_site_occupancy
  Tl  Tl0  1  0.68354300  0.87196000  0.37700600  1
  Tl  Tl1  1  0.31610100  0.12674500  0.62207100  1
  Tl  Tl2  1  0.22926600  0.53803000  0.81480000  1
  Tl  Tl3  1  0.76872500  0.45664100  0.18530800  1
  Tl  Tl4  1  0.79791100  0.04327500  0.02470700  1
  Sb  Sb5  1  0.28642400  0.03217700  0.18913400  1
  Sb  Sb6  1  0.71047000  0.96854900  0.80856800  1
  Sb  Sb7  1  0.16670700  0.79845800  0.40399600  1
  Sb  Sb8  1  0.83887100  0.19940500  0.59475800  1
  Sb  Sb9  1  0.41401300  0.61690300  0.58820300  1
  Sb  Sb10  1  0.57824200  0.38545200  0.41074400  1
  Sb  Sb11  1  0.76162200  0.38382200  0.79164700  1
  Sb  Sb12  1  0.24124800  0.61639900  0.20221200  1
  Sb  Sb13  1  0.31424100  0.94734300  0.98190300  1
  Sb  Sb14  1  0.86406300  0.72142100  0.60715400  1
  As  As15  1  0.13917300  0.28595400  0.38129900  1
  As  As16  1  0.26350100  0.41899900  0.03277800  1
  As  As17  1  0.75051500  0.58371900  0.97103800  1
  S  S18  1  0.91308600  0.37232500  0.90823000  1
  S  S19  1  0.07139400  0.63503200  0.09165800  1
  S  S20  1  0.44402100  0.72547400  0.31107400  1
  S  S21  1  0.56545000  0.26917600  0.69050200  1
  S  S22  1  0.48472500  0.70876400  0.91044100  1
  S  S23  1  0.49848200  0.31325800  0.10320800  1
  S  S24  1  0.01429400  0.45019900  0.69160100  1
  S  S25  1  0.99588900  0.54034500  0.31036400  1
  S  S26  1  0.09184400  0.23109600  0.08438800  1
  S  S27  1  0.91552200  0.76427800  0.91205500  1
  S  S28  1  0.05203300  0.12968400  0.32016100  1
  S  S29  1  0.96365500  0.87761400  0.67775400  1
  S  S30  1  0.54507500  0.75017600  0.67245800  1
  S  S31  1  0.44327700  0.25088100  0.32946000  1
  S  S32  1  0.71878800  0.52270900  0.51218200  1
  S  S33  1  0.27505900  0.48015600  0.48793900  1
  S  S34  1  0.48249100  0.14559000  0.90685600  1
  S  S35  1  0.49762500  0.82945400  0.09237000  1
  S  S36  1  0.69417100  0.10673300  0.50909000  1
  S  S37  1  0.30622700  0.89146300  0.49200500  1
  S  S38  1  0.03042000  0.90122600  0.20467700  1
  S  S39  1  0.96193700  0.09641600  0.80309900  1
