# generated using pymatgen
data_NaH3SO5
_symmetry_space_group_name_H-M   'P 1'
_cell_length_a   5.61112818
_cell_length_b   5.61112818
_cell_length_c   8.02822505
_cell_angle_alpha   108.93855164
_cell_angle_beta   108.93855164
_cell_angle_gamma   90.18707901
_symmetry_Int_Tables_number   1
_chemical_formula_structural   NaH3SO5
_chemical_formula_sum   'Na2 H6 S2 O10'
_cell_volume   224.46923868
_cell_formula_units_Z   2
loop_
 _symmetry_equiv_pos_site_id
 _symmetry_equiv_pos_as_xyz
  1  'x, y, z'
loop_
 _atom_site_type_symbol
 _atom_site_label
 _atom_site_symmetry_multiplicity
 _atom_site_fract_x
 _atom_site_fract_y
 _atom_site_fract_z
 _atom_site_occupancy
  H  H0  1  0.87438800  0.47967200  0.77630400  1
  H  H1  1  0.47967200  0.87438800  0.27630400  1
  H  H2  1  0.71713800  0.21072600  0.68087400  1
  H  H3  1  0.21072600  0.71713800  0.18087400  1
  H  H4  1  0.09094500  0.17157200  0.00079500  1
  H  H5  1  0.17157200  0.09094500  0.50079500  1
  Na  Na6  1  0.48052200  0.55376500  0.49323600  1
  Na  Na7  1  0.55376500  0.48052200  0.99323600  1
  O  O8  1  0.84370100  0.87746900  0.65810400  1
  O  O9  1  0.87746900  0.84370100  0.15810400  1
  O  O10  1  0.26627900  0.91101600  0.63389500  1
  O  O11  1  0.91101600  0.26627900  0.13389500  1
  O  O12  1  0.20912400  0.14302900  0.92519900  1
  O  O13  1  0.14302900  0.20912400  0.42519900  1
  O  O14  1  0.18299100  0.67438400  0.82082300  1
  O  O15  1  0.67438400  0.18299100  0.32082300  1
  O  O16  1  0.70137600  0.39150000  0.73449800  1
  O  O17  1  0.39150000  0.70137600  0.23449800  1
  S  S18  1  0.11662800  0.88297400  0.74927100  1
  S  S19  1  0.88297400  0.11662800  0.24927100  1
