# generated using pymatgen
data_KBP2PbO8
_symmetry_space_group_name_H-M   'P 1'
_cell_length_a   7.16414025
_cell_length_b   7.16414025
_cell_length_c   8.77310665
_cell_angle_alpha   112.53420326
_cell_angle_beta   112.53420326
_cell_angle_gamma   90.74879144
_symmetry_Int_Tables_number   1
_chemical_formula_structural   KBP2PbO8
_chemical_formula_sum   'K2 B2 P4 Pb2 O16'
_cell_volume   377.33598956
_cell_formula_units_Z   2
loop_
 _symmetry_equiv_pos_site_id
 _symmetry_equiv_pos_as_xyz
  1  'x, y, z'
loop_
 _atom_site_type_symbol
 _atom_site_label
 _atom_site_symmetry_multiplicity
 _atom_site_fract_x
 _atom_site_fract_y
 _atom_site_fract_z
 _atom_site_occupancy
  B  B0  1  0.73602500  0.01606600  0.50018700  1
  B  B1  1  0.01606600  0.73602500  0.00018700  1
  K  K2  1  0.23486200  0.37654600  0.74588700  1
  K  K3  1  0.37654600  0.23486200  0.24588700  1
  O  O4  1  0.05863000  0.66293700  0.61504500  1
  O  O5  1  0.20342700  0.04115200  0.82085600  1
  O  O6  1  0.57115600  0.51320400  0.69831500  1
  O  O7  1  0.65126900  0.25627900  0.84054800  1
  O  O8  1  0.04115200  0.20342700  0.32085600  1
  O  O9  1  0.51320400  0.57115600  0.19831500  1
  O  O10  1  0.25627900  0.65126900  0.34054800  1
  O  O11  1  0.66293700  0.05863000  0.11504500  1
  O  O12  1  0.80885000  0.91300300  0.62332600  1
  O  O13  1  0.95977800  0.84856100  0.88461000  1
  O  O14  1  0.77515200  0.24049600  0.59541900  1
  O  O15  1  0.94558600  0.51217800  0.90111800  1
  O  O16  1  0.84856100  0.95977800  0.38461000  1
  O  O17  1  0.24049600  0.77515200  0.09541900  1
  O  O18  1  0.51217800  0.94558600  0.40111800  1
  O  O19  1  0.91300300  0.80885000  0.12332600  1
  P  P20  1  0.02067100  0.86660600  0.73471300  1
  P  P21  1  0.72201100  0.38186100  0.75851400  1
  P  P22  1  0.86660600  0.02067100  0.23471300  1
  P  P23  1  0.38186100  0.72201100  0.25851400  1
  Pb  Pb24  1  0.52611800  0.90757600  0.78146300  1
  Pb  Pb25  1  0.90757600  0.52611800  0.28146300  1
