# generated using pymatgen
data_Al3PO7
_symmetry_space_group_name_H-M   'P 1'
_cell_length_a   4.95672025
_cell_length_b   4.95672025
_cell_length_c   4.95672025
_cell_angle_alpha   102.18989040
_cell_angle_beta   102.18989040
_cell_angle_gamma   102.18989040
_symmetry_Int_Tables_number   1
_chemical_formula_structural   Al3PO7
_chemical_formula_sum   'Al3 P1 O7'
_cell_volume   112.10666288
_cell_formula_units_Z   1
loop_
 _symmetry_equiv_pos_site_id
 _symmetry_equiv_pos_as_xyz
  1  'x, y, z'
loop_
 _atom_site_type_symbol
 _atom_site_label
 _atom_site_symmetry_multiplicity
 _atom_site_fract_x
 _atom_site_fract_y
 _atom_site_fract_z
 _atom_site_occupancy
  Al  Al0  1  0.41556097  0.41556097  0.03369494  1
  Al  Al1  1  0.41556097  0.03369494  0.41556097  1
  Al  Al2  1  0.03369494  0.41556097  0.41556097  1
  O  O3  1  0.70184485  0.70184485  0.02966209  1
  O  O4  1  0.26677300  0.64818775  0.26677300  1
  O  O5  1  0.26677300  0.26677300  0.64818775  1
  O  O6  1  0.70184485  0.02966209  0.70184485  1
  O  O7  1  0.02966209  0.70184485  0.70184485  1
  O  O8  1  0.11632792  0.11632792  0.11632792  1
  O  O9  1  0.64818775  0.26677300  0.26677300  1
  P  P10  1  0.87223366  0.87223366  0.87223366  1
