# generated using pymatgen
data_Cs3Li2Br5
_symmetry_space_group_name_H-M   'P 1'
_cell_length_a   4.34067994
_cell_length_b   5.94174699
_cell_length_c   13.13246668
_cell_angle_alpha   103.07155063
_cell_angle_beta   99.50819625
_cell_angle_gamma   90.01938136
_symmetry_Int_Tables_number   1
_chemical_formula_structural   Cs3Li2Br5
_chemical_formula_sum   'Cs3 Li2 Br5'
_cell_volume   325.14288900
_cell_formula_units_Z   1
loop_
 _symmetry_equiv_pos_site_id
 _symmetry_equiv_pos_as_xyz
  1  'x, y, z'
loop_
 _atom_site_type_symbol
 _atom_site_label
 _atom_site_symmetry_multiplicity
 _atom_site_fract_x
 _atom_site_fract_y
 _atom_site_fract_z
 _atom_site_occupancy
  Br  Br0  1  0.25507596  0.47166736  0.00000000  1
  Br  Br1  1  0.01997106  0.19285178  0.53101894  1
  Br  Br2  1  0.48895212  0.66183284  0.46898106  1
  Br  Br3  1  0.13701345  0.84976375  0.76460371  1
  Br  Br4  1  0.37240974  0.08516004  0.23539629  1
  Cs  Cs5  1  0.87480832  0.59396389  0.24038265  1
  Cs  Cs6  1  0.63442567  0.35358124  0.75961735  1
  Cs  Cs7  1  0.75516151  0.97254008  0.00000000  1
  Li  Li8  1  0.03907644  0.78378495  0.56851768  1
  Li  Li9  1  0.47055876  0.21526727  0.43148232  1
