# generated using pymatgen
data_Sn15Os3O14
_symmetry_space_group_name_H-M   'P 1'
_cell_length_a   7.09000000
_cell_length_b   7.14148621
_cell_length_c   12.93900000
_cell_angle_alpha   105.98033478
_cell_angle_beta   90.00000000
_cell_angle_gamma   119.76179840
_symmetry_Int_Tables_number   1
_chemical_formula_structural   Sn15Os3O14
_chemical_formula_sum   'Sn15 Os3 O14'
_cell_volume   539.36846460
_cell_formula_units_Z   1
loop_
 _symmetry_equiv_pos_site_id
 _symmetry_equiv_pos_as_xyz
  1  'x, y, z'
loop_
 _atom_site_type_symbol
 _atom_site_label
 _atom_site_symmetry_multiplicity
 _atom_site_fract_x
 _atom_site_fract_y
 _atom_site_fract_z
 _atom_site_occupancy
  Sn  Sn17  1  0.32878000  0.18214000  0.91081000  1.0
  Sn  Sn18  1  0.42401000  0.32914000  0.65354000  1.0
  Sn  Sn19  1  0.90513000  0.32914000  0.65354000  1.0
  Sn  Sn20  1  0.98546000  0.97092000  0.38073000  1.0
  Sn  Sn21  1  0.09094000  0.66222000  0.16245000  1.0
  Sn  Sn22  1  0.57128000  0.66222000  0.16245000  1.0
  Sn  Sn23  1  0.84992000  0.69984000  0.92008000  1.0
  Sn  Sn24  1  0.55738000  0.11476000  0.12773000  1.0
  Sn  Sn25  1  0.90529000  0.81058000  0.65936000  1.0
  Sn  Sn26  1  0.99632000  0.50740000  0.42596000  1.0
  Sn  Sn27  1  0.51108000  0.50740000  0.42596000  1.0
  Sn  Sn28  1  0.51305000  0.02610000  0.42070000  1.0
  Sn  Sn29  1  0.09696000  0.19392000  0.17778000  1.0
  Sn  Sn30  1  0.85336000  0.18214000  0.91081000  1.0
  Sn  Sn31  1  0.32146000  0.64292000  0.88872000  1.0
  Os  Os14  1  0.71141000  0.42282000  0.03493000  1.0
  Os  Os15  1  0.11599000  0.23198000  0.76797000  1.0
  Os  Os16  1  0.30209000  0.60418000  0.30651000  1.0
  O  O0  1  0.77440000  0.54880000  0.74930000  1.0
  O  O1  1  0.76370000  0.02140000  0.18410000  1.0
  O  O2  1  0.25770000  0.02140000  0.18410000  1.0
  O  O3  1  0.02180000  0.59900000  0.59410000  1.0
  O  O4  1  0.57720000  0.59900000  0.59410000  1.0
  O  O5  1  0.65230000  0.30460000  0.36650000  1.0
  O  O6  1  0.57610000  0.15220000  0.58940000  1.0
  O  O7  1  0.37740000  0.75480000  0.05700000  1.0
  O  O8  1  0.87640000  0.75280000  0.47190000  1.0
  O  O9  1  0.04060000  0.08120000  0.00920000  1.0
  O  O10  1  0.30240000  0.18020000  0.46630000  1.0
  O  O11  1  0.87780000  0.18020000  0.46630000  1.0
  O  O12  1  0.18300000  0.83100000  0.88560000  1.0
  O  O13  1  0.64800000  0.83100000  0.88560000  1.0
