# generated using pymatgen
data_Na3Be3Pb2F13
_symmetry_space_group_name_H-M   'P 1'
_cell_length_a   9.55718400
_cell_length_b   7.14954200
_cell_length_c   9.64725139
_cell_angle_alpha   90.00000000
_cell_angle_beta   119.54863167
_cell_angle_gamma   90.00000000
_symmetry_Int_Tables_number   1
_chemical_formula_structural   Na3Be3Pb2F13
_chemical_formula_sum   'Na6 Be6 Pb4 F26'
_cell_volume   573.45557313
_cell_formula_units_Z   2
loop_
 _symmetry_equiv_pos_site_id
 _symmetry_equiv_pos_as_xyz
  1  'x, y, z'
loop_
 _atom_site_type_symbol
 _atom_site_label
 _atom_site_symmetry_multiplicity
 _atom_site_fract_x
 _atom_site_fract_y
 _atom_site_fract_z
 _atom_site_occupancy
  Na  Na0  1  0.66157800  0.50621100  0.32263600  1
  Na  Na1  1  0.33842200  0.00621100  0.67736400  1
  Na  Na2  1  0.33960400  0.49288600  0.67736500  1
  Na  Na3  1  0.66039600  0.99288600  0.32263500  1
  Na  Na4  1  0.25948400  0.24137500  0.00337400  1
  Na  Na5  1  0.74051600  0.74137500  0.99662600  1
  Be  Be6  1  0.97346600  0.24936000  0.59504800  1
  Be  Be7  1  0.40684600  0.24911400  0.37513600  1
  Be  Be8  1  0.62609400  0.24709600  0.03000000  1
  Be  Be9  1  0.02653400  0.74936000  0.40495200  1
  Be  Be10  1  0.59315400  0.74911400  0.62486400  1
  Be  Be11  1  0.37390600  0.74709600  0.97000000  1
  Pb  Pb12  1  0.00782200  0.24743100  0.24010800  1
  Pb  Pb13  1  0.74939900  0.24625300  0.76407400  1
  Pb  Pb14  1  0.99217800  0.74743100  0.75989200  1
  Pb  Pb15  1  0.25060100  0.74625300  0.23592600  1
  F  F16  1  0.91918600  0.42405100  0.65937100  1
  F  F17  1  0.33799300  0.42158800  0.25866100  1
  F  F18  1  0.74498500  0.42063700  0.07750500  1
  F  F19  1  0.08081400  0.92405100  0.34062900  1
  F  F20  1  0.66200700  0.92158800  0.74133900  1
  F  F21  1  0.25501500  0.92063700  0.92249500  1
  F  F22  1  0.08852000  0.57672500  0.34783600  1
  F  F23  1  0.65352100  0.57499100  0.73767100  1
  F  F24  1  0.25669300  0.57235200  0.91656900  1
  F  F25  1  0.91148000  0.07672500  0.65216400  1
  F  F26  1  0.34647900  0.07499100  0.26232900  1
  F  F27  1  0.74330700  0.07235200  0.08343100  1
  F  F28  1  0.87445300  0.25219800  0.40852700  1
  F  F29  1  0.59432400  0.25302900  0.46339200  1
  F  F30  1  0.53343600  0.25221800  0.12318300  1
  F  F31  1  0.12554700  0.75219800  0.59147300  1
  F  F32  1  0.40567600  0.75302900  0.53660800  1
  F  F33  1  0.46656400  0.75221800  0.87681700  1
  F  F34  1  0.15604500  0.24677500  0.66212600  1
  F  F35  1  0.34164400  0.24838500  0.49481600  1
  F  F36  1  0.51444500  0.24586000  0.84577700  1
  F  F37  1  0.84395500  0.74677500  0.33787400  1
  F  F38  1  0.65835600  0.74838500  0.50518400  1
  F  F39  1  0.48555500  0.74586000  0.15422300  1
  F  F40  1  0.00952200  0.18646500  0.99340900  1
  F  F41  1  0.99047800  0.68646500  0.00659100  1
