# generated using pymatgen
data_KBS4(ClO3)4
_symmetry_space_group_name_H-M   'P 1'
_cell_length_a   8.36762400
_cell_length_b   10.76033327
_cell_length_c   11.20561543
_cell_angle_alpha   83.00038549
_cell_angle_beta   68.07655317
_cell_angle_gamma   70.95031030
_symmetry_Int_Tables_number   1
_chemical_formula_structural   KBS4(ClO3)4
_chemical_formula_sum   'K2 B2 S8 Cl8 O24'
_cell_volume   884.71550652
_cell_formula_units_Z   2
loop_
 _symmetry_equiv_pos_site_id
 _symmetry_equiv_pos_as_xyz
  1  'x, y, z'
loop_
 _atom_site_type_symbol
 _atom_site_label
 _atom_site_symmetry_multiplicity
 _atom_site_fract_x
 _atom_site_fract_y
 _atom_site_fract_z
 _atom_site_occupancy
  B  B0  1  0.11983100  0.49885200  0.75829200  1
  B  B1  1  0.87812300  0.99885200  0.24170800  1
  Cl  Cl2  1  0.95269600  0.65715400  0.35079900  1
  Cl  Cl3  1  0.35915500  0.23289400  0.29789700  1
  Cl  Cl4  1  0.65705200  0.73289400  0.70210300  1
  Cl  Cl5  1  0.06918000  0.38594700  0.09576000  1
  Cl  Cl6  1  0.15826000  0.94010300  0.48579800  1
  Cl  Cl7  1  0.64405800  0.44010300  0.51420200  1
  Cl  Cl8  1  0.16494000  0.88594700  0.90424000  1
  Cl  Cl9  1  0.30349500  0.15715400  0.64920100  1
  K  K10  1  0.48632200  0.59581200  0.16601800  1
  K  K11  1  0.65234000  0.09581200  0.83398200  1
  O  O12  1  0.39076800  0.33496400  0.87870100  1
  O  O13  1  0.98887200  0.61612100  0.72552300  1
  O  O14  1  0.31405000  0.53243900  0.00758500  1
  O  O15  1  0.14678700  0.53708800  0.87126300  1
  O  O16  1  0.65332400  0.12471000  0.07386100  1
  O  O17  1  0.28568100  0.46484500  0.64332200  1
  O  O18  1  0.81482800  0.82592900  0.83862600  1
  O  O19  1  0.61413100  0.85489000  0.41323300  1
  O  O20  1  0.84916900  0.88214000  0.20563600  1
  O  O21  1  0.35236800  0.57602200  0.43481500  1
  O  O22  1  0.78718300  0.07602200  0.56518500  1
  O  O23  1  0.98411000  0.17233000  0.37802500  1
  O  O24  1  0.01805000  0.03708800  0.12873700  1
  O  O25  1  0.92900300  0.96484500  0.35667800  1
  O  O26  1  0.92796700  0.21640800  0.77828800  1
  O  O27  1  0.05480500  0.38214000  0.79436400  1
  O  O28  1  0.65345400  0.32592900  0.16137400  1
  O  O29  1  0.26946900  0.83496400  0.12129900  1
  O  O30  1  0.32163500  0.03243900  0.99241500  1
  O  O31  1  0.71439500  0.11612100  0.27447700  1
  O  O32  1  0.72718500  0.62471000  0.92613900  1
  O  O33  1  0.70625500  0.71640800  0.22171200  1
  O  O34  1  0.02736400  0.35489000  0.58676700  1
  O  O35  1  0.36213500  0.67233000  0.62197500  1
  S  S36  1  0.93946000  0.05965700  0.44651300  1
  S  S37  1  0.62084300  0.20056700  0.18220900  1
  S  S38  1  0.38597300  0.55965700  0.55348700  1
  S  S39  1  0.04829800  0.28846200  0.70125700  1
  S  S40  1  0.20982900  0.94886500  0.04912000  1
  S  S41  1  0.74955500  0.78846200  0.29874300  1
  S  S42  1  0.80305200  0.70056700  0.81779100  1
  S  S43  1  0.25894900  0.44886500  0.95088000  1
