# generated using pymatgen
data_Li2AsF5
_symmetry_space_group_name_H-M   'P 1'
_cell_length_a   5.34124944
_cell_length_b   5.36602402
_cell_length_c   5.36602402
_cell_angle_alpha   76.09632770
_cell_angle_beta   60.64464476
_cell_angle_gamma   60.64464476
_symmetry_Int_Tables_number   1
_chemical_formula_structural   Li2AsF5
_chemical_formula_sum   'Li2 As1 F5'
_cell_volume   116.83651619
_cell_formula_units_Z   1
loop_
 _symmetry_equiv_pos_site_id
 _symmetry_equiv_pos_as_xyz
  1  'x, y, z'
loop_
 _atom_site_type_symbol
 _atom_site_label
 _atom_site_symmetry_multiplicity
 _atom_site_fract_x
 _atom_site_fract_y
 _atom_site_fract_z
 _atom_site_occupancy
  As  As0  1  0.99844373  0.99842973  0.99842973  1
  F  F1  1  0.02985142  0.69735898  0.30109554  1
  F  F2  1  0.33358036  0.69707842  0.69707842  1
  F  F3  1  0.72686056  0.30069259  0.30069259  1
  F  F4  1  0.02985142  0.30109554  0.69735898  1
  F  F5  1  0.32413667  0.00268085  0.00268085  1
  Li  Li6  1  0.28257150  0.49752192  0.49752192  1
  Li  Li7  1  0.78005134  0.50010098  0.50010098  1
