# generated using pymatgen
data_Nb9PO25
_symmetry_space_group_name_H-M   'P 1'
_cell_length_a   3.82800000
_cell_length_b   11.19568649
_cell_length_c   11.19568649
_cell_angle_alpha   88.32518481
_cell_angle_beta   80.15643548
_cell_angle_gamma   80.15643548
_symmetry_Int_Tables_number   1
_chemical_formula_structural   Nb9PO25
_chemical_formula_sum   'Nb9 P1 O25'
_cell_volume   465.79103995
_cell_formula_units_Z   1
loop_
 _symmetry_equiv_pos_site_id
 _symmetry_equiv_pos_as_xyz
  1  'x, y, z'
loop_
 _atom_site_type_symbol
 _atom_site_label
 _atom_site_symmetry_multiplicity
 _atom_site_fract_x
 _atom_site_fract_y
 _atom_site_fract_z
 _atom_site_occupancy
  Nb  Nb0  1  0.88580000  0.44520000  0.78320000  1.0
  Nb  Nb1  1  0.11420000  0.55480000  0.21680000  1.0
  Nb  Nb2  1  0.66900000  0.21680000  0.44520000  1.0
  Nb  Nb3  1  0.10940000  0.10940000  0.67180000  1.0
  Nb  Nb4  1  0.78120000  0.32820000  0.10940000  1.0
  Nb  Nb5  1  0.21880000  0.67180000  0.89060000  1.0
  Nb  Nb6  1  0.89060000  0.89060000  0.32820000  1.0
  Nb  Nb7  1  0.00000000  0.00000000  0.00000000  1.0
  Nb  Nb8  1  0.33100000  0.78320000  0.55480000  1.0
  P  P34  1  0.25000000  0.50000000  0.50000000  1.0
  O  O9  1  0.35360000  0.50030000  0.79250000  1.0
  O  O10  1  0.14610000  0.20750000  0.50030000  1.0
  O  O11  1  0.85390000  0.79250000  0.49970000  1.0
  O  O12  1  0.64640000  0.49970000  0.20750000  1.0
  O  O13  1  0.45310000  0.61910000  0.47470000  1.0
  O  O14  1  0.92780000  0.52530000  0.61910000  1.0
  O  O15  1  0.07220000  0.47470000  0.38090000  1.0
  O  O16  1  0.54690000  0.38090000  0.52530000  1.0
  O  O17  1  0.27290000  0.74460000  0.70960000  1.0
  O  O18  1  0.98250000  0.29040000  0.74460000  1.0
  O  O19  1  0.50000000  0.00000000  0.00000000  1.0
  O  O20  1  0.60830000  0.14290000  0.64050000  1.0
  O  O21  1  0.24880000  0.35950000  0.14290000  1.0
  O  O22  1  0.75120000  0.64050000  0.85710000  1.0
  O  O23  1  0.39170000  0.85710000  0.35950000  1.0
  O  O24  1  0.94790000  0.94000000  0.16420000  1.0
  O  O25  1  0.11210000  0.83580000  0.94000000  1.0
  O  O26  1  0.88790000  0.16420000  0.06000000  1.0
  O  O27  1  0.05210000  0.06000000  0.83580000  1.0
  O  O28  1  0.77880000  0.04570000  0.39670000  1.0
  O  O29  1  0.17550000  0.60330000  0.04570000  1.0
  O  O30  1  0.82450000  0.39670000  0.95430000  1.0
  O  O31  1  0.22120000  0.95430000  0.60330000  1.0
  O  O32  1  0.72710000  0.25540000  0.29040000  1.0
  O  O33  1  0.01750000  0.70960000  0.25540000  1.0
