# generated using pymatgen
data_Li2SbF5
_symmetry_space_group_name_H-M   'P 1'
_cell_length_a   5.27239684
_cell_length_b   5.47248868
_cell_length_c   5.47248868
_cell_angle_alpha   77.75575658
_cell_angle_beta   62.53988315
_cell_angle_gamma   62.53988315
_symmetry_Int_Tables_number   1
_chemical_formula_structural   Li2SbF5
_chemical_formula_sum   'Li2 Sb1 F5'
_cell_volume   124.32258999
_cell_formula_units_Z   1
loop_
 _symmetry_equiv_pos_site_id
 _symmetry_equiv_pos_as_xyz
  1  'x, y, z'
loop_
 _atom_site_type_symbol
 _atom_site_label
 _atom_site_symmetry_multiplicity
 _atom_site_fract_x
 _atom_site_fract_y
 _atom_site_fract_z
 _atom_site_occupancy
  F  F0  1  0.03003784  0.69324694  0.30810668  1
  F  F1  1  0.34442767  0.69115096  0.69115096  1
  F  F2  1  0.71985622  0.30585751  0.30585751  1
  F  F3  1  0.03003784  0.30810668  0.69324694  1
  F  F4  1  0.33144284  0.00917275  0.00917275  1
  Li  Li5  1  0.28603117  0.49533141  0.49533141  1
  Li  Li6  1  0.78030919  0.50137945  0.50137945  1
  Sb  Sb7  1  0.97749322  0.99666630  0.99666630  1
