# generated using pymatgen
data_Na4P6PbO18
_symmetry_space_group_name_H-M   'P 1'
_cell_length_a   7.39032898
_cell_length_b   7.94610407
_cell_length_c   8.22465702
_cell_angle_alpha   58.91630015
_cell_angle_beta   73.36051896
_cell_angle_gamma   78.38772659
_symmetry_Int_Tables_number   1
_chemical_formula_structural   Na4P6PbO18
_chemical_formula_sum   'Na4 P6 Pb1 O18'
_cell_volume   395.47466555
_cell_formula_units_Z   1
loop_
 _symmetry_equiv_pos_site_id
 _symmetry_equiv_pos_as_xyz
  1  'x, y, z'
loop_
 _atom_site_type_symbol
 _atom_site_label
 _atom_site_symmetry_multiplicity
 _atom_site_fract_x
 _atom_site_fract_y
 _atom_site_fract_z
 _atom_site_occupancy
  Na  Na0  1  0.81971400  0.18185200  0.34616200  1
  Na  Na1  1  0.17379900  0.82908200  0.65979700  1
  Na  Na2  1  0.50487200  0.49005200  0.50810400  1
  Na  Na3  1  0.88096100  0.19110100  0.76221700  1
  P  P4  1  0.23506600  0.31720900  0.33656800  1
  P  P5  1  0.76943400  0.67651300  0.66905400  1
  P  P6  1  0.49125200  0.04556900  0.22127300  1
  P  P7  1  0.50797800  0.94812300  0.77911200  1
  P  P8  1  0.77431200  0.68389400  0.02146400  1
  P  P9  1  0.23201800  0.32257500  0.97865500  1
  Pb  Pb10  1  0.09024800  0.82527500  0.19860900  1
  O  O11  1  0.74662800  0.52519800  0.22821100  1
  O  O12  1  0.25753900  0.48250600  0.77278900  1
  O  O13  1  0.70181700  0.01443800  0.18626400  1
  O  O14  1  0.29563600  0.96566400  0.82909200  1
  O  O15  1  0.80335000  0.58059000  0.88732900  1
  O  O16  1  0.20600300  0.42325200  0.11423500  1
  O  O17  1  0.92907200  0.82374500  0.93757000  1
  O  O18  1  0.07476300  0.18409700  0.06507100  1
  O  O19  1  0.62064600  0.12700700  0.65408800  1
  O  O20  1  0.36476700  0.87520300  0.33483800  1
  O  O21  1  0.74487000  0.51360500  0.63897600  1
  O  O22  1  0.26906200  0.47791900  0.36637500  1
  O  O23  1  0.92016300  0.81943800  0.52586200  1
  O  O24  1  0.07850300  0.18306300  0.47481300  1
  O  O25  1  0.56651500  0.80123500  0.68403500  1
  O  O26  1  0.43413600  0.18699900  0.32258700  1
  O  O27  1  0.57354900  0.80964500  0.98482300  1
  O  O28  1  0.43332700  0.19514900  0.01202700  1
