# generated using pymatgen
data_Ge4PbO9
_symmetry_space_group_name_H-M   'P 1'
_cell_length_a   4.65922555
_cell_length_b   6.82182008
_cell_length_c   6.82182008
_cell_angle_alpha   114.64001162
_cell_angle_beta   103.15662023
_cell_angle_gamma   103.15662023
_symmetry_Int_Tables_number   1
_chemical_formula_structural   Ge4PbO9
_chemical_formula_sum   'Ge4 Pb1 O9'
_cell_volume   178.71715345
_cell_formula_units_Z   1
loop_
 _symmetry_equiv_pos_site_id
 _symmetry_equiv_pos_as_xyz
  1  'x, y, z'
loop_
 _atom_site_type_symbol
 _atom_site_label
 _atom_site_symmetry_multiplicity
 _atom_site_fract_x
 _atom_site_fract_y
 _atom_site_fract_z
 _atom_site_occupancy
  Ge  Ge0  1  0.50000000  0.51233457  0.48766543  1
  Ge  Ge1  1  0.68101291  0.06923948  0.48719475  1
  Ge  Ge2  1  0.00000000  0.69194473  0.30805527  1
  Ge  Ge3  1  0.31898709  0.51280525  0.93076052  1
  O  O4  1  0.60578772  0.45972117  0.09266833  1
  O  O5  1  0.39421228  0.90733167  0.54027883  1
  O  O6  1  0.84201466  0.92286557  0.28710712  1
  O  O7  1  0.86473743  0.71199907  0.55307933  1
  O  O8  1  0.15798534  0.71289288  0.07713443  1
  O  O9  1  0.13526257  0.44692067  0.28800093  1
  O  O10  1  0.51471532  0.22929875  0.37888456  1
  O  O11  1  0.00000000  0.24613969  0.75386031  1
  O  O12  1  0.48528468  0.62111544  0.77070125  1
  Pb  Pb13  1  0.00000000  0.00199405  0.99800595  1
