# generated using pymatgen
data_BeHSe
_symmetry_space_group_name_H-M   'P 1'
_cell_length_a   3.61708645
_cell_length_b   3.61708645
_cell_length_c   9.06030637
_cell_angle_alpha   81.31368289
_cell_angle_beta   81.31368289
_cell_angle_gamma   60.04168131
_symmetry_Int_Tables_number   1
_chemical_formula_structural   BeHSe
_chemical_formula_sum   'Be2 H2 Se2'
_cell_volume   101.12637898
_cell_formula_units_Z   2
loop_
 _symmetry_equiv_pos_site_id
 _symmetry_equiv_pos_as_xyz
  1  'x, y, z'
loop_
 _atom_site_type_symbol
 _atom_site_label
 _atom_site_symmetry_multiplicity
 _atom_site_fract_x
 _atom_site_fract_y
 _atom_site_fract_z
 _atom_site_occupancy
  Be  Be0  1  0.76420492  0.76420492  0.43343160  1
  Be  Be1  1  0.47537850  0.47537850  0.26177146  1
  H  H2  1  0.59660168  0.59660168  0.81279299  1
  H  H3  1  0.66455637  0.66455637  0.87490150  1
  Se  Se4  1  0.40914935  0.40914935  0.51884740  1
  Se  Se5  1  0.83057417  0.83057417  0.17619205  1
