# generated using pymatgen
data_Ta9PO25
_symmetry_space_group_name_H-M   'P 1'
_cell_length_a   3.89718100
_cell_length_b   11.30374346
_cell_length_c   11.30374346
_cell_angle_alpha   88.29712352
_cell_angle_beta   80.07351032
_cell_angle_gamma   80.07351032
_symmetry_Int_Tables_number   1
_chemical_formula_structural   Ta9PO25
_chemical_formula_sum   'Ta9 P1 O25'
_cell_volume   483.16319109
_cell_formula_units_Z   1
loop_
 _symmetry_equiv_pos_site_id
 _symmetry_equiv_pos_as_xyz
  1  'x, y, z'
loop_
 _atom_site_type_symbol
 _atom_site_label
 _atom_site_symmetry_multiplicity
 _atom_site_fract_x
 _atom_site_fract_y
 _atom_site_fract_z
 _atom_site_occupancy
  Ta  Ta26  1  0.00000000  0.00000000  0.00000000  1.0
  Ta  Ta27  1  0.10490200  0.11560900  0.67318200  1.0
  Ta  Ta28  1  0.87980700  0.44457000  0.78826900  1.0
  Ta  Ta29  1  0.67562300  0.21173100  0.44457000  1.0
  Ta  Ta30  1  0.22191600  0.67318200  0.88439100  1.0
  Ta  Ta31  1  0.77948900  0.32681800  0.11560900  1.0
  Ta  Ta32  1  0.33192400  0.78826900  0.55543000  1.0
  Ta  Ta33  1  0.11264600  0.55543000  0.21173100  1.0
  Ta  Ta34  1  0.89369300  0.88439100  0.32681800  1.0
  P  P25  1  0.25000000  0.50000000  0.50000000  1.0
  O  O0  1  0.50000000  0.00000000  0.00000000  1.0
  O  O1  1  0.05389200  0.06518900  0.83176800  1.0
  O  O2  1  0.82708000  0.39326400  0.95537800  1.0
  O  O3  1  0.61172400  0.14055300  0.63327000  1.0
  O  O4  1  0.98670200  0.29009500  0.72879100  1.0
  O  O5  1  0.77965600  0.04462200  0.39326400  1.0
  O  O6  1  0.35653200  0.48972600  0.80191900  1.0
  O  O7  1  0.15374200  0.19808100  0.48972600  1.0
  O  O8  1  0.75500600  0.63327000  0.85944700  1.0
  O  O9  1  0.51985500  0.38368300  0.51188400  1.0
  O  O10  1  0.96826100  0.51188400  0.61631700  1.0
  O  O11  1  0.11434000  0.83176800  0.93481100  1.0
  O  O12  1  0.72320300  0.27120900  0.29009500  1.0
  O  O13  1  0.28450700  0.72879100  0.70990500  1.0
  O  O14  1  0.88091900  0.16823200  0.06518900  1.0
  O  O15  1  0.09646200  0.48811600  0.38368300  1.0
  O  O16  1  0.41542200  0.61631700  0.48811600  1.0
  O  O17  1  0.24772300  0.36673000  0.14055300  1.0
  O  O18  1  0.84154900  0.80191900  0.51027400  1.0
  O  O19  1  0.64817700  0.51027400  0.19808100  1.0
  O  O20  1  0.21754200  0.95537800  0.60673600  1.0
  O  O21  1  0.00558800  0.70990500  0.27120900  1.0
  O  O22  1  0.38554700  0.85944700  0.36673000  1.0
  O  O23  1  0.17572200  0.60673600  0.04462200  1.0
  O  O24  1  0.95084900  0.93481100  0.16823200  1.0
