# generated using pymatgen
data_RbAgH2
_symmetry_space_group_name_H-M   'P 1'
_cell_length_a   5.69058444
_cell_length_b   5.69058444
_cell_length_c   5.69058444
_cell_angle_alpha   91.65030269
_cell_angle_beta   119.05181539
_cell_angle_gamma   119.05181539
_symmetry_Int_Tables_number   1
_chemical_formula_structural   RbAgH2
_chemical_formula_sum   'Rb2 Ag2 H4'
_cell_volume   132.11154080
_cell_formula_units_Z   2
loop_
 _symmetry_equiv_pos_site_id
 _symmetry_equiv_pos_as_xyz
  1  'x, y, z'
loop_
 _atom_site_type_symbol
 _atom_site_label
 _atom_site_symmetry_multiplicity
 _atom_site_fract_x
 _atom_site_fract_y
 _atom_site_fract_z
 _atom_site_occupancy
  Ag  Ag0  1  0.50000000  0.75000000  0.25000000  1
  Ag  Ag1  1  0.00000000  0.00000000  0.00000000  1
  H  H2  1  0.16161814  0.78661814  0.12500000  1
  H  H3  1  0.83838186  0.96338186  0.62500000  1
  H  H4  1  0.66161814  0.87500000  0.03661814  1
  H  H5  1  0.33838186  0.37500000  0.21338186  1
  Rb  Rb6  1  0.50000000  0.25000000  0.75000000  1
  Rb  Rb7  1  -0.00000000  0.50000000  0.50000000  1
