# generated using pymatgen
data_CsGa2P5O16
_symmetry_space_group_name_H-M   'P 1'
_cell_length_a   7.55859100
_cell_length_b   9.37008200
_cell_length_c   10.35815725
_cell_angle_alpha   90.00000000
_cell_angle_beta   112.27105715
_cell_angle_gamma   90.00000000
_symmetry_Int_Tables_number   1
_chemical_formula_structural   CsGa2P5O16
_chemical_formula_sum   'Cs2 Ga4 P10 O32'
_cell_volume   678.88597122
_cell_formula_units_Z   2
loop_
 _symmetry_equiv_pos_site_id
 _symmetry_equiv_pos_as_xyz
  1  'x, y, z'
loop_
 _atom_site_type_symbol
 _atom_site_label
 _atom_site_symmetry_multiplicity
 _atom_site_fract_x
 _atom_site_fract_y
 _atom_site_fract_z
 _atom_site_occupancy
  Cs  Cs0  1  0.01955100  0.80399700  0.26486000  1
  Cs  Cs1  1  0.01955100  0.19600300  0.76486000  1
  Ga  Ga2  1  0.08562400  0.36905700  0.37292300  1
  Ga  Ga3  1  0.64350600  0.86140800  0.48039300  1
  Ga  Ga4  1  0.08562400  0.63094300  0.87292300  1
  Ga  Ga5  1  0.64350600  0.13859200  0.98039300  1
  P  P6  1  0.89681100  0.41465100  0.03883900  1
  P  P7  1  0.49951400  0.45543000  0.99943100  1
  P  P8  1  0.73656200  0.87298900  0.81215800  1
  P  P9  1  0.44674600  0.29646000  0.63796200  1
  P  P10  1  0.73656200  0.12701100  0.31215800  1
  P  P11  1  0.40156100  0.13935000  0.38312000  1
  P  P12  1  0.49951400  0.54457000  0.49943100  1
  P  P13  1  0.44674600  0.70354000  0.13796200  1
  P  P14  1  0.40156100  0.86065000  0.88312000  1
  P  P15  1  0.89681100  0.58534900  0.53883900  1
  O  O16  1  0.68698300  0.49340600  0.97002500  1
  O  O17  1  0.52300100  0.78303100  0.02988200  1
  O  O18  1  0.86683300  0.25385700  0.01859900  1
  O  O19  1  0.53109100  0.45594300  0.64197700  1
  O  O20  1  0.72073000  0.93453400  0.67160000  1
  O  O21  1  0.32846900  0.48168900  0.38495300  1
  O  O22  1  0.54248200  0.76869100  0.27796700  1
  O  O23  1  0.51885500  0.18076200  0.29067700  1
  O  O24  1  0.53109100  0.54405700  0.14197700  1
  O  O25  1  0.49708100  0.70236700  0.52846800  1
  O  O26  1  0.32846900  0.51831100  0.88495300  1
  O  O27  1  0.68698300  0.50659400  0.47002500  1
  O  O28  1  0.72073000  0.06546600  0.17160000  1
  O  O29  1  0.52300100  0.21696900  0.52988200  1
  O  O30  1  0.00830300  0.53279200  0.45364800  1
  O  O31  1  0.40815300  0.97925900  0.40974600  1
  O  O32  1  0.49708100  0.29763300  0.02846800  1
  O  O33  1  0.20221700  0.19870000  0.31688900  1
  O  O34  1  0.20221700  0.80130000  0.81688900  1
  O  O35  1  0.23045800  0.29841200  0.57360800  1
  O  O36  1  0.86683300  0.74614300  0.51859900  1
  O  O37  1  0.78713600  0.01199500  0.42578300  1
  O  O38  1  0.86116300  0.74145200  0.86008500  1
  O  O39  1  0.54248200  0.23130900  0.77796700  1
  O  O40  1  0.97571200  0.54007600  0.69154600  1
  O  O41  1  0.00830300  0.46720800  0.95364800  1
  O  O42  1  0.86116300  0.25854800  0.36008500  1
  O  O43  1  0.97571200  0.45992400  0.19154600  1
  O  O44  1  0.40815300  0.02074100  0.90974600  1
  O  O45  1  0.78713600  0.98800500  0.92578300  1
  O  O46  1  0.51885500  0.81923800  0.79067700  1
  O  O47  1  0.23045800  0.70158800  0.07360800  1
