# generated using pymatgen
data_Ge(Bi3O5)4
_symmetry_space_group_name_H-M   'P 1'
_cell_length_a   8.79249335
_cell_length_b   8.79249335
_cell_length_c   8.79249335
_cell_angle_alpha   109.47122063
_cell_angle_beta   109.47122063
_cell_angle_gamma   109.47122063
_symmetry_Int_Tables_number   1
_chemical_formula_structural   Ge(Bi3O5)4
_chemical_formula_sum   'Ge1 Bi12 O20'
_cell_volume   523.25604486
_cell_formula_units_Z   1
loop_
 _symmetry_equiv_pos_site_id
 _symmetry_equiv_pos_as_xyz
  1  'x, y, z'
loop_
 _atom_site_type_symbol
 _atom_site_label
 _atom_site_symmetry_multiplicity
 _atom_site_fract_x
 _atom_site_fract_y
 _atom_site_fract_z
 _atom_site_occupancy
  Bi  Bi0  1  0.85650291  0.19148268  0.69623203  1
  Bi  Bi1  1  0.14349709  0.83972912  0.33497977  1
  Bi  Bi2  1  0.50474935  0.80851732  0.66502023  1
  Bi  Bi3  1  0.33497977  0.14349709  0.83972912  1
  Bi  Bi4  1  0.19148268  0.69623203  0.85650291  1
  Bi  Bi5  1  0.16027088  0.30376797  0.49525065  1
  Bi  Bi6  1  0.30376797  0.49525065  0.16027088  1
  Bi  Bi7  1  0.83972912  0.33497977  0.14349709  1
  Bi  Bi8  1  0.66502023  0.50474935  0.80851732  1
  Bi  Bi9  1  0.80851732  0.66502023  0.50474935  1
  Bi  Bi10  1  0.69623203  0.85650291  0.19148268  1
  Bi  Bi11  1  0.49525065  0.16027088  0.30376797  1
  Ge  Ge12  1  0.00000000  0.00000000  0.00000000  1
  O  O13  1  0.00000000  0.79820928  0.00000000  1
  O  O14  1  0.20179072  0.20179072  0.20179072  1
  O  O15  1  -0.00000000  0.00000000  0.79820928  1
  O  O16  1  0.79820928  1.00000000  1.00000000  1
  O  O17  1  -0.00000000  0.39194077  -0.00000000  1
  O  O18  1  0.60805923  0.60805923  0.60805923  1
  O  O19  1  0.00000000  0.00000000  0.39194077  1
  O  O20  1  0.39194077  0.00000000  0.00000000  1
  O  O21  1  0.87994763  0.62099638  0.23617315  1
  O  O22  1  0.12005237  0.35622552  0.74104875  1
  O  O23  1  0.61517677  0.37900362  0.25895125  1
  O  O24  1  0.74104875  0.12005237  0.35622552  1
  O  O25  1  0.62099638  0.23617315  0.87994763  1
  O  O26  1  0.38482323  0.64377448  0.76382685  1
  O  O27  1  0.23617315  0.87994763  0.62099638  1
  O  O28  1  0.37900362  0.25895125  0.61517677  1
  O  O29  1  0.25895125  0.61517677  0.37900362  1
  O  O30  1  0.35622552  0.74104875  0.12005237  1
  O  O31  1  0.76382685  0.38482323  0.64377448  1
  O  O32  1  0.64377448  0.76382685  0.38482323  1
