# generated using pymatgen
data_SbPbF5
_symmetry_space_group_name_H-M   'P 1'
_cell_length_a   4.16234053
_cell_length_b   4.26668457
_cell_length_c   7.23630984
_cell_angle_alpha   69.87584536
_cell_angle_beta   73.64637431
_cell_angle_gamma   61.44019916
_symmetry_Int_Tables_number   1
_chemical_formula_structural   SbPbF5
_chemical_formula_sum   'Sb1 Pb1 F5'
_cell_volume   104.91032959
_cell_formula_units_Z   1
loop_
 _symmetry_equiv_pos_site_id
 _symmetry_equiv_pos_as_xyz
  1  'x, y, z'
loop_
 _atom_site_type_symbol
 _atom_site_label
 _atom_site_symmetry_multiplicity
 _atom_site_fract_x
 _atom_site_fract_y
 _atom_site_fract_z
 _atom_site_occupancy
  Sb  Sb0  1  0.10556414  0.88920322  0.94623770  1
  Pb  Pb1  1  0.51511447  0.52455826  0.44071127  1
  F  F2  1  0.12613040  0.15525953  0.63481229  1
  F  F3  1  0.22329363  0.42247826  0.18315669  1
  F  F4  1  0.85116909  0.91211620  0.40853226  1
  F  F5  1  0.67787245  0.73911412  0.95281243  1
  F  F6  1  0.37585584  0.47827040  0.80873736  1
