# generated using pymatgen
data_Bi2MoO6
_symmetry_space_group_name_H-M   'P 1'
_cell_length_a   5.48220000
_cell_length_b   16.19860000
_cell_length_c   5.50910000
_cell_angle_alpha   90.00000000
_cell_angle_beta   90.00000000
_cell_angle_gamma   90.00000000
_symmetry_Int_Tables_number   1
_chemical_formula_structural   Bi2MoO6
_chemical_formula_sum   'Bi8 Mo4 O24'
_cell_volume   489.22992314
_cell_formula_units_Z   4
loop_
 _symmetry_equiv_pos_site_id
 _symmetry_equiv_pos_as_xyz
  1  'x, y, z'
loop_
 _atom_site_type_symbol
 _atom_site_label
 _atom_site_symmetry_multiplicity
 _atom_site_fract_x
 _atom_site_fract_y
 _atom_site_fract_z
 _atom_site_occupancy
  Bi  Bi0  1  0.47337974  0.42397767  0.51309630  1.0
  Bi  Bi1  1  0.97337973  0.57602232  0.51309630  1.0
  Bi  Bi2  1  0.02662027  0.42397767  0.01309630  1.0
  Bi  Bi3  1  0.52662027  0.57602232  0.01309630  1.0
  Bi  Bi4  1  0.97281509  0.07585667  0.03990158  1.0
  Bi  Bi5  1  0.02718491  0.92414332  0.53990158  1.0
  Bi  Bi6  1  0.52718491  0.07585667  0.53990158  1.0
  Bi  Bi7  1  0.47281509  0.92414332  0.03990158  1.0
  Mo  Mo8  1  0.49016393  0.25018904  0.99607192  1.0
  Mo  Mo9  1  0.50983608  0.74981096  0.49607192  1.0
  Mo  Mo10  1  0.00983607  0.25018904  0.49607192  1.0
  Mo  Mo11  1  0.99016392  0.74981096  0.99607192  1.0
  O  O12  1  0.89811580  0.14789431  0.41099260  1.0
  O  O13  1  0.10188419  0.85210568  0.91099260  1.0
  O  O14  1  0.60188420  0.14789431  0.91099260  1.0
  O  O15  1  0.39811580  0.85210568  0.41099260  1.0
  O  O16  1  0.27626337  0.22122184  0.64418556  1.0
  O  O17  1  0.72373663  0.77877816  0.14418556  1.0
  O  O18  1  0.22373662  0.22122184  0.14418556  1.0
  O  O19  1  0.77626337  0.77877816  0.64418556  1.0
  O  O20  1  0.81985394  0.27832641  0.73336297  1.0
  O  O21  1  0.18014606  0.72167359  0.23336297  1.0
  O  O22  1  0.68014606  0.27832641  0.23336297  1.0
  O  O23  1  0.31985393  0.72167359  0.73336297  1.0
  O  O24  1  0.91116918  0.64652155  0.88395747  1.0
  O  O25  1  0.08883081  0.35347844  0.38395747  1.0
  O  O26  1  0.58883082  0.64652155  0.38395747  1.0
  O  O27  1  0.41116918  0.35347844  0.88395747  1.0
  O  O28  1  0.73807552  0.49782528  0.73081519  1.0
  O  O29  1  0.26192448  0.50217473  0.23081519  1.0
  O  O30  1  0.25976249  0.00309650  0.75921731  1.0
  O  O31  1  0.23807551  0.50217473  0.73081519  1.0
  O  O32  1  0.75976250  0.99690349  0.75921731  1.0
  O  O33  1  0.24023750  0.00309650  0.25921731  1.0
  O  O34  1  0.74023750  0.99690349  0.25921731  1.0
  O  O35  1  0.76192448  0.49782528  0.23081519  1.0
