# generated using pymatgen
data_KNaTi4(BiO6)2
_symmetry_space_group_name_H-M   'P 1'
_cell_length_a   5.76605161
_cell_length_b   5.76605161
_cell_length_c   7.77402300
_cell_angle_alpha   90.00000000
_cell_angle_beta   90.00000000
_cell_angle_gamma   95.15831600
_symmetry_Int_Tables_number   1
_chemical_formula_structural   KNaTi4(BiO6)2
_chemical_formula_sum   'K1 Na1 Ti4 Bi2 O12'
_cell_volume   257.41890584
_cell_formula_units_Z   1
loop_
 _symmetry_equiv_pos_site_id
 _symmetry_equiv_pos_as_xyz
  1  'x, y, z'
loop_
 _atom_site_type_symbol
 _atom_site_label
 _atom_site_symmetry_multiplicity
 _atom_site_fract_x
 _atom_site_fract_y
 _atom_site_fract_z
 _atom_site_occupancy
  Bi  Bi0  1  0.06907200  0.93092800  0.00000000  1
  Bi  Bi1  1  0.57200500  0.42799500  0.50000000  1
  K  K2  1  0.01507400  0.98492600  0.50000000  1
  Na  Na3  1  0.53255100  0.46744900  0.00000000  1
  O  O4  1  0.72415600  0.27584400  0.74348000  1
  O  O5  1  0.22790500  0.77209500  0.76276800  1
  O  O6  1  0.72415600  0.27584400  0.25652000  1
  O  O7  1  0.22790500  0.77209500  0.23723200  1
  O  O8  1  0.97796200  0.53262500  1.00000000  1
  O  O9  1  0.46737500  0.02203800  0.00000000  1
  O  O10  1  0.96670900  0.50973500  0.50000000  1
  O  O11  1  0.49026500  0.03329100  0.50000000  1
  O  O12  1  0.22925400  0.27267700  0.75517100  1
  O  O13  1  0.72732300  0.77074600  0.75517100  1
  O  O14  1  0.22925400  0.27267700  0.24482900  1
  O  O15  1  0.72732300  0.77074600  0.24482900  1
  Ti  Ti16  1  0.02242300  0.47756700  0.75258700  1
  Ti  Ti17  1  0.52243300  0.97757700  0.75258700  1
  Ti  Ti18  1  0.02242300  0.47756700  0.24741300  1
  Ti  Ti19  1  0.52243300  0.97757700  0.24741300  1
