# generated using pymatgen
data_Ba3SrSi8(NO)8
_symmetry_space_group_name_H-M   'P 1'
_cell_length_a   4.85336917
_cell_length_b   5.52660773
_cell_length_c   14.47861146
_cell_angle_alpha   89.03210095
_cell_angle_beta   89.98276609
_cell_angle_gamma   89.97411277
_symmetry_Int_Tables_number   1
_chemical_formula_structural   Ba3SrSi8(NO)8
_chemical_formula_sum   'Ba3 Sr1 Si8 N8 O8'
_cell_volume   388.29951448
_cell_formula_units_Z   1
loop_
 _symmetry_equiv_pos_site_id
 _symmetry_equiv_pos_as_xyz
  1  'x, y, z'
loop_
 _atom_site_type_symbol
 _atom_site_label
 _atom_site_symmetry_multiplicity
 _atom_site_fract_x
 _atom_site_fract_y
 _atom_site_fract_z
 _atom_site_occupancy
  Ba  Ba0  1  0.29425400  0.74161100  0.52590700  1
  Ba  Ba1  1  0.79392100  0.25825100  0.47395200  1
  Ba  Ba2  1  0.79172400  0.75481100  0.02612000  1
  Sr  Sr3  1  0.28960100  0.23145800  0.97005700  1
  Si  Si4  1  0.24755500  0.44207100  0.29542700  1
  Si  Si5  1  0.74754500  0.56182000  0.70464000  1
  Si  Si6  1  0.74746600  0.05994800  0.79962100  1
  Si  Si7  1  0.24755400  0.94841000  0.20054200  1
  Si  Si8  1  0.74643300  0.25008600  0.19711800  1
  Si  Si9  1  0.24521300  0.74436000  0.80380200  1
  Si  Si10  1  0.24578400  0.25135500  0.70110500  1
  Si  Si11  1  0.74562600  0.74747000  0.29953700  1
  N  N12  1  0.89513600  0.27717500  0.72598000  1
  N  N13  1  0.39639400  0.72502400  0.27174600  1
  N  N14  1  0.39736300  0.22773600  0.22457400  1
  N  N15  1  0.89444800  0.77586400  0.77768600  1
  N  N16  1  0.89387800  0.46555700  0.27128100  1
  N  N17  1  0.39310900  0.53529400  0.72753400  1
  N  N18  1  0.39103800  0.03340200  0.77814000  1
  N  N19  1  0.89495700  0.96691900  0.22615300  1
  O  O20  1  0.29357800  0.37020600  0.40416600  1
  O  O21  1  0.79507800  0.63398600  0.59630300  1
  O  O22  1  0.79455500  0.13376900  0.90674700  1
  O  O23  1  0.29282400  0.89631700  0.09115800  1
  O  O24  1  0.79812400  0.30443600  0.08777000  1
  O  O25  1  0.29406000  0.66692500  0.91166700  1
  O  O26  1  0.29813000  0.19689200  0.59219600  1
  O  O27  1  0.79425200  0.79884700  0.40907200  1
