# generated using pymatgen
data_AlHSe2
_symmetry_space_group_name_H-M   'P 1'
_cell_length_a   5.32463303
_cell_length_b   6.07873679
_cell_length_c   5.32992792
_cell_angle_alpha   90.00000000
_cell_angle_beta   90.04878972
_cell_angle_gamma   90.00000000
_symmetry_Int_Tables_number   1
_chemical_formula_structural   AlHSe2
_chemical_formula_sum   'Al2 H2 Se4'
_cell_volume   172.51394173
_cell_formula_units_Z   2
loop_
 _symmetry_equiv_pos_site_id
 _symmetry_equiv_pos_as_xyz
  1  'x, y, z'
loop_
 _atom_site_type_symbol
 _atom_site_label
 _atom_site_symmetry_multiplicity
 _atom_site_fract_x
 _atom_site_fract_y
 _atom_site_fract_z
 _atom_site_occupancy
  Al  Al0  1  0.15986719  0.75007362  0.62462835  1
  Al  Al1  1  0.15986719  0.24992638  0.62462835  1
  H  H2  1  0.13311039  0.50000000  0.10030034  1
  H  H3  1  0.62519637  0.00000000  0.67902796  1
  Se  Se4  1  0.40658483  0.50000000  0.38667904  1
  Se  Se5  1  0.91791630  0.50000000  0.89303788  1
  Se  Se6  1  0.90177927  0.00000000  0.39803823  1
  Se  Se7  1  0.40941746  0.00000000  0.88582284  1
