# generated using pymatgen
data_OF
_symmetry_space_group_name_H-M   'P 1'
_cell_length_a   3.79642956
_cell_length_b   4.08427453
_cell_length_c   4.33201420
_cell_angle_alpha   92.15338070
_cell_angle_beta   94.18322117
_cell_angle_gamma   117.47549473
_symmetry_Int_Tables_number   1
_chemical_formula_structural   OF
_chemical_formula_sum   'O2 F2'
_cell_volume   59.24277769
_cell_formula_units_Z   2
loop_
 _symmetry_equiv_pos_site_id
 _symmetry_equiv_pos_as_xyz
  1  'x, y, z'
loop_
 _atom_site_type_symbol
 _atom_site_label
 _atom_site_symmetry_multiplicity
 _atom_site_fract_x
 _atom_site_fract_y
 _atom_site_fract_z
 _atom_site_occupancy
  O  O0  1  0.64849574  0.85671033  0.10040072  1
  O  O1  1  0.67015420  0.89164085  0.37880504  1
  F  F2  1  0.10958819  0.19032070  0.52038900  1
  F  F3  1  0.78142388  0.55325612  0.98820523  1
