# generated using pymatgen
data_K2ZnSnSe4
_symmetry_space_group_name_H-M   'P 1'
_cell_length_a   6.54719487
_cell_length_b   6.54719487
_cell_length_c   6.54719487
_cell_angle_alpha   104.93164391
_cell_angle_beta   104.93164391
_cell_angle_gamma   118.99066084
_symmetry_Int_Tables_number   1
_chemical_formula_structural   K2ZnSnSe4
_chemical_formula_sum   'K2 Zn1 Sn1 Se4'
_cell_volume   211.50655425
_cell_formula_units_Z   1
loop_
 _symmetry_equiv_pos_site_id
 _symmetry_equiv_pos_as_xyz
  1  'x, y, z'
loop_
 _atom_site_type_symbol
 _atom_site_label
 _atom_site_symmetry_multiplicity
 _atom_site_fract_x
 _atom_site_fract_y
 _atom_site_fract_z
 _atom_site_occupancy
  K  K0  1  0.50000000  0.00000000  0.50000000  1
  K  K1  1  0.00000000  0.50000000  0.50000000  1
  Se  Se2  1  0.07563890  0.07563890  0.66188398  1
  Se  Se3  1  0.41375492  0.41375492  0.33811602  1
  Se  Se4  1  0.92436110  0.58624508  0.00000000  1
  Se  Se5  1  0.58624508  0.92436110  -0.00000000  1
  Sn  Sn6  1  0.50000000  0.50000000  -0.00000000  1
  Zn  Zn7  1  0.00000000  0.00000000  0.00000000  1
