# generated using pymatgen
data_Sr4Sb2O
_symmetry_space_group_name_H-M   'P 1'
_cell_length_a   4.98807593
_cell_length_b   4.98860210
_cell_length_c   9.34706207
_cell_angle_alpha   105.47009228
_cell_angle_beta   105.47313652
_cell_angle_gamma   90.00202950
_symmetry_Int_Tables_number   1
_chemical_formula_structural   Sr4Sb2O
_chemical_formula_sum   'Sr4 Sb2 O1'
_cell_volume   215.40099468
_cell_formula_units_Z   1
loop_
 _symmetry_equiv_pos_site_id
 _symmetry_equiv_pos_as_xyz
  1  'x, y, z'
loop_
 _atom_site_type_symbol
 _atom_site_label
 _atom_site_symmetry_multiplicity
 _atom_site_fract_x
 _atom_site_fract_y
 _atom_site_fract_z
 _atom_site_occupancy
  Sr  Sr0  1  0.16704697  0.16698894  0.33693083  1
  Sr  Sr1  1  0.49961967  0.99986208  0.00063184  1
  Sr  Sr2  1  0.99990339  0.49958289  0.00063708  1
  Sr  Sr3  1  0.83061918  0.83068007  0.66412847  1
  Sb  Sb4  1  0.63760945  0.63746848  0.27627179  1
  Sb  Sb5  1  0.36162688  0.36188309  0.72495423  1
  O  O6  1  0.99970146  0.99966347  0.00080777  1
