# generated using pymatgen
data_Rb2ZnSnSe4
_symmetry_space_group_name_H-M   'P 1'
_cell_length_a   6.71396534
_cell_length_b   6.71396534
_cell_length_c   6.71396534
_cell_angle_alpha   104.57327964
_cell_angle_beta   104.57327964
_cell_angle_gamma   119.78613372
_symmetry_Int_Tables_number   1
_chemical_formula_structural   Rb2ZnSnSe4
_chemical_formula_sum   'Rb2 Zn1 Sn1 Se4'
_cell_volume   227.22780674
_cell_formula_units_Z   1
loop_
 _symmetry_equiv_pos_site_id
 _symmetry_equiv_pos_as_xyz
  1  'x, y, z'
loop_
 _atom_site_type_symbol
 _atom_site_label
 _atom_site_symmetry_multiplicity
 _atom_site_fract_x
 _atom_site_fract_y
 _atom_site_fract_z
 _atom_site_occupancy
  Rb  Rb0  1  -0.00000000  0.50000000  0.50000000  1
  Rb  Rb1  1  0.50000000  -0.00000000  0.50000000  1
  Se  Se2  1  0.59181859  0.59181859  0.67420230  1
  Se  Se3  1  0.91761629  0.91761629  0.32579770  1
  Se  Se4  1  0.08238371  0.40818141  0.00000000  1
  Se  Se5  1  0.40818141  0.08238371  -0.00000000  1
  Sn  Sn6  1  0.50000000  0.50000000  0.00000000  1
  Zn  Zn7  1  0.00000000  0.00000000  0.00000000  1
