# generated using pymatgen
data_LiB3O5
_symmetry_space_group_name_H-M   'P 1'
_cell_length_a   8.44400000
_cell_length_b   7.37800000
_cell_length_c   5.14600000
_cell_angle_alpha   90.00000000
_cell_angle_beta   90.00000000
_cell_angle_gamma   90.00000000
_symmetry_Int_Tables_number   1
_chemical_formula_structural   LiB3O5
_chemical_formula_sum   'Li4 B12 O20'
_cell_volume   320.59493547
_cell_formula_units_Z   4
loop_
 _symmetry_equiv_pos_site_id
 _symmetry_equiv_pos_as_xyz
  1  'x, y, z'
loop_
 _atom_site_type_symbol
 _atom_site_label
 _atom_site_symmetry_multiplicity
 _atom_site_fract_x
 _atom_site_fract_y
 _atom_site_fract_z
 _atom_site_occupancy
  Li  Li0  1  0.41196000  0.43311000  0.00000000  1.0
  Li  Li1  1  0.58804000  0.56689000  0.50000000  1.0
  Li  Li2  1  0.91196000  0.06689000  0.00000000  1.0
  Li  Li3  1  0.08804000  0.93311000  0.50000000  1.0
  B  B4  1  0.50983000  0.16455000  0.64750000  1.0
  B  B5  1  0.49017000  0.83545000  0.14750000  1.0
  B  B6  1  0.00983000  0.33545000  0.64750000  1.0
  B  B7  1  0.99017000  0.66455000  0.14750000  1.0
  B  B8  1  0.69434000  0.94312000  0.45110000  1.0
  B  B9  1  0.30566000  0.05688000  0.95110000  1.0
  B  B10  1  0.19434000  0.55688000  0.45110000  1.0
  B  B11  1  0.80566000  0.44312000  0.95110000  1.0
  B  B12  1  0.65725000  0.24863000  0.26790000  1.0
  B  B13  1  0.34275000  0.75137000  0.76790000  1.0
  B  B14  1  0.15725000  0.25137000  0.26790000  1.0
  B  B15  1  0.84275000  0.74863000  0.76790000  1.0
  O  O16  1  0.58671000  0.00441000  0.65500000  1.0
  O  O17  1  0.41329000  0.99559000  0.15500000  1.0
  O  O18  1  0.08671000  0.49559000  0.65500000  1.0
  O  O19  1  0.91329000  0.50441000  0.15500000  1.0
  O  O20  1  0.38351000  0.20483000  0.80340000  1.0
  O  O21  1  0.61649000  0.79517000  0.30340000  1.0
  O  O22  1  0.88351000  0.29517000  0.80340000  1.0
  O  O23  1  0.11649000  0.70483000  0.30340000  1.0
  O  O24  1  0.55827000  0.29792000  0.47210000  1.0
  O  O25  1  0.44173000  0.70208000  0.97210000  1.0
  O  O26  1  0.05827000  0.20208000  0.47210000  1.0
  O  O27  1  0.94173000  0.79792000  0.97210000  1.0
  O  O28  1  0.73880000  0.09024000  0.26680000  1.0
  O  O29  1  0.26120000  0.90976000  0.76680000  1.0
  O  O30  1  0.23880000  0.40976000  0.26680000  1.0
  O  O31  1  0.76120000  0.59024000  0.76680000  1.0
  O  O32  1  0.66116000  0.37506000  0.07320000  1.0
  O  O33  1  0.33884000  0.62494000  0.57320000  1.0
  O  O34  1  0.16116000  0.12494000  0.07320000  1.0
  O  O35  1  0.83884000  0.87506000  0.57320000  1.0
