# generated using pymatgen
data_Li2SiTe4Pb
_symmetry_space_group_name_H-M   'P 1'
_cell_length_a   6.65982810
_cell_length_b   6.65982810
_cell_length_c   6.69166299
_cell_angle_alpha   112.75199180
_cell_angle_beta   112.75199180
_cell_angle_gamma   102.52089030
_symmetry_Int_Tables_number   1
_chemical_formula_structural   Li2SiTe4Pb
_chemical_formula_sum   'Li2 Si1 Te4 Pb1'
_cell_volume   227.78249775
_cell_formula_units_Z   1
loop_
 _symmetry_equiv_pos_site_id
 _symmetry_equiv_pos_as_xyz
  1  'x, y, z'
loop_
 _atom_site_type_symbol
 _atom_site_label
 _atom_site_symmetry_multiplicity
 _atom_site_fract_x
 _atom_site_fract_y
 _atom_site_fract_z
 _atom_site_occupancy
  Li  Li0  1  0.75657330  0.25658922  0.50278209  1
  Li  Li1  1  0.25658922  0.75657330  0.50278209  1
  Pb  Pb2  1  0.97473354  0.97473354  0.95606639  1
  Si  Si3  1  0.50380779  0.50380779  0.00991032  1
  Te  Te4  1  0.87084932  0.87084932  0.40842506  1
  Te  Te5  1  0.52997427  0.13023394  0.00309359  1
  Te  Te6  1  0.13023394  0.52997427  0.00309359  1
  Te  Te7  1  0.47743962  0.47743962  0.61404987  1
