# generated using pymatgen
data_SiO2
_symmetry_space_group_name_H-M   'P 1'
_cell_length_a   8.33325632
_cell_length_b   8.33325632
_cell_length_c   8.33325632
_cell_angle_alpha   105.23887065
_cell_angle_beta   105.23887065
_cell_angle_gamma   118.31458917
_symmetry_Int_Tables_number   1
_chemical_formula_structural   SiO2
_chemical_formula_sum   'Si8 O16'
_cell_volume   437.40385752
_cell_formula_units_Z   8
loop_
 _symmetry_equiv_pos_site_id
 _symmetry_equiv_pos_as_xyz
  1  'x, y, z'
loop_
 _atom_site_type_symbol
 _atom_site_label
 _atom_site_symmetry_multiplicity
 _atom_site_fract_x
 _atom_site_fract_y
 _atom_site_fract_z
 _atom_site_occupancy
  O  O0  1  0.31460974  0.49921541  0.81455698  1
  O  O1  1  0.81460974  0.00005276  0.81539432  1
  O  O2  1  0.10600656  0.39399344  -0.00000000  1
  O  O3  1  0.25061270  0.24938730  0.50000000  1
  O  O4  1  0.68465844  0.50005276  0.18544303  1
  O  O5  1  0.24938730  0.74938730  0.99877461  1
  O  O6  1  0.39399344  0.10600656  -0.00000000  1
  O  O7  1  0.50078459  0.31534156  0.81539432  1
  O  O8  1  0.75061270  0.25061270  0.00122539  1
  O  O9  1  0.00078459  0.18539026  0.18544303  1
  O  O10  1  0.99994724  0.81534156  0.81455698  1
  O  O11  1  0.60600656  0.60600656  0.71201313  1
  O  O12  1  0.18465844  0.99921541  0.18460567  1
  O  O13  1  0.49994724  0.68539026  0.18460567  1
  O  O14  1  0.89399344  0.89399344  0.28798687  1
  O  O15  1  0.74938730  0.75061270  0.50000000  1
  Si  Si16  1  0.08252275  0.08203874  0.28959036  1
  Si  Si17  1  0.58252275  0.29293239  0.00048400  1
  Si  Si18  1  0.70706761  0.70755161  0.28959036  1
  Si  Si19  1  0.91796126  0.20755161  0.00048400  1
  Si  Si20  1  0.41796126  0.41747725  0.71040965  1
  Si  Si21  1  0.79244839  0.79293239  0.71040965  1
  Si  Si22  1  0.29244839  0.58203874  0.99951599  1
  Si  Si23  1  0.20706761  0.91747725  0.99951599  1
