# generated using pymatgen
data_CsCNO
_symmetry_space_group_name_H-M   'P 1'
_cell_length_a   6.21725769
_cell_length_b   6.21725769
_cell_length_c   6.21725769
_cell_angle_alpha   98.80483078
_cell_angle_beta   114.95526262
_cell_angle_gamma   115.15195272
_symmetry_Int_Tables_number   1
_chemical_formula_structural   CsCNO
_chemical_formula_sum   'Cs2 C2 N2 O2'
_cell_volume   180.32641848
_cell_formula_units_Z   2
loop_
 _symmetry_equiv_pos_site_id
 _symmetry_equiv_pos_as_xyz
  1  'x, y, z'
loop_
 _atom_site_type_symbol
 _atom_site_label
 _atom_site_symmetry_multiplicity
 _atom_site_fract_x
 _atom_site_fract_y
 _atom_site_fract_z
 _atom_site_occupancy
  C  C0  1  0.74940500  0.74835300  0.50105200  1
  C  C1  1  0.75269900  0.25164700  0.00105200  1
  Cs  Cs2  1  0.24918800  1.00000000  0.24918800  1
  Cs  Cs3  1  0.24918800  0.50000000  0.74918800  1
  N  N4  1  0.75104500  0.62222500  0.62882000  1
  N  N5  1  0.00659500  0.37777500  0.12882000  1
  O  O6  1  0.75047300  0.87953300  0.37094000  1
  O  O7  1  0.49140700  0.12046700  0.87094000  1
