# generated using pymatgen
data_YTl(PSe3)2
_symmetry_space_group_name_H-M   'P 1'
_cell_length_a   6.87121400
_cell_length_b   7.66290600
_cell_length_c   10.36290158
_cell_angle_alpha   90.00000000
_cell_angle_beta   91.12697961
_cell_angle_gamma   90.00000000
_symmetry_Int_Tables_number   1
_chemical_formula_structural   YTl(PSe3)2
_chemical_formula_sum   'Y2 Tl2 P4 Se12'
_cell_volume   545.53714816
_cell_formula_units_Z   2
loop_
 _symmetry_equiv_pos_site_id
 _symmetry_equiv_pos_as_xyz
  1  'x, y, z'
loop_
 _atom_site_type_symbol
 _atom_site_label
 _atom_site_symmetry_multiplicity
 _atom_site_fract_x
 _atom_site_fract_y
 _atom_site_fract_z
 _atom_site_occupancy
  Y  Y0  1  0.28453500  0.50204700  0.49802800  1
  Y  Y1  1  0.71546500  0.00204700  0.50197200  1
  Tl  Tl2  1  0.81631300  0.77975800  0.00768600  1
  Tl  Tl3  1  0.18368700  0.27975800  0.99231400  1
  P  P4  1  0.18756000  0.99082000  0.32448400  1
  P  P5  1  0.81244000  0.49082000  0.67551600  1
  P  P6  1  0.31032000  0.77192200  0.20415800  1
  P  P7  1  0.68968000  0.27192200  0.79584200  1
  Se  Se8  1  0.42450100  0.19048900  0.33017200  1
  Se  Se9  1  0.57549900  0.69048900  0.66982800  1
  Se  Se10  1  0.56835700  0.69140300  0.32801200  1
  Se  Se11  1  0.43164300  0.19140300  0.67198800  1
  Se  Se12  1  0.12944200  0.86682400  0.51601900  1
  Se  Se13  1  0.87055800  0.36682400  0.48398100  1
  Se  Se14  1  0.09995500  0.56124200  0.23276400  1
  Se  Se15  1  0.90004500  0.06124200  0.76723600  1
  Se  Se16  1  0.09131200  0.58747400  0.75572100  1
  Se  Se17  1  0.90868800  0.08747400  0.24427900  1
  Se  Se18  1  0.34719300  0.86391100  0.00977300  1
  Se  Se19  1  0.65280700  0.36391100  0.99022700  1
