# generated using pymatgen
data_Be4Si2H2O9
_symmetry_space_group_name_H-M   'P 1'
_cell_length_a   4.56500000
_cell_length_b   8.71600000
_cell_length_c   8.78469807
_cell_angle_alpha   119.74164537
_cell_angle_beta   90.00000000
_cell_angle_gamma   90.00000000
_symmetry_Int_Tables_number   1
_chemical_formula_structural   Be4Si2H2O9
_chemical_formula_sum   'Be8 Si4 H4 O18'
_cell_volume   303.48708871
_cell_formula_units_Z   2
loop_
 _symmetry_equiv_pos_site_id
 _symmetry_equiv_pos_as_xyz
  1  'x, y, z'
loop_
 _atom_site_type_symbol
 _atom_site_label
 _atom_site_symmetry_multiplicity
 _atom_site_fract_x
 _atom_site_fract_y
 _atom_site_fract_z
 _atom_site_occupancy
  Be  Be0  1  0.99350000  0.77500000  0.89520000  1.0
  Be  Be1  1  0.99350000  0.12020000  0.89520000  1.0
  Be  Be2  1  0.49350000  0.22500000  0.10480000  1.0
  Be  Be3  1  0.49350000  0.87980000  0.10480000  1.0
  Be  Be4  1  0.99610000  0.45370000  0.55960000  1.0
  Be  Be5  1  0.99610000  0.10590000  0.55960000  1.0
  Be  Be6  1  0.49610000  0.54630000  0.44040000  1.0
  Be  Be7  1  0.49610000  0.89410000  0.44040000  1.0
  Si  Si30  1  0.00000000  0.43950000  0.22860000  1.0
  Si  Si31  1  0.00000000  0.78910000  0.22860000  1.0
  Si  Si32  1  0.50000000  0.56050000  0.77140000  1.0
  Si  Si33  1  0.50000000  0.21090000  0.77140000  1.0
  H  H8  1  0.67800000  0.13600000  0.27200000  1.0
  H  H9  1  0.17800000  0.86400000  0.72800000  1.0
  H  H10  1  0.18300000  0.20100000  0.40200000  1.0
  H  H11  1  0.68300000  0.79900000  0.59800000  1.0
  O  O12  1  0.65160000  0.41370000  0.24880000  1.0
  O  O13  1  0.65160000  0.83510000  0.24880000  1.0
  O  O14  1  0.15160000  0.58630000  0.75120000  1.0
  O  O15  1  0.15160000  0.16490000  0.75120000  1.0
  O  O16  1  0.14550000  0.25300000  0.08620000  1.0
  O  O17  1  0.14550000  0.83320000  0.08620000  1.0
  O  O18  1  0.64550000  0.74700000  0.91380000  1.0
  O  O19  1  0.64550000  0.16680000  0.91380000  1.0
  O  O20  1  0.15030000  0.50220000  0.41840000  1.0
  O  O21  1  0.15030000  0.91620000  0.41840000  1.0
  O  O22  1  0.65030000  0.49780000  0.58160000  1.0
  O  O23  1  0.65030000  0.08380000  0.58160000  1.0
  O  O24  1  0.55960000  0.41550000  0.83100000  1.0
  O  O25  1  0.05960000  0.58450000  0.16900000  1.0
  O  O26  1  0.55380000  0.08730000  0.17460000  1.0
  O  O27  1  0.05380000  0.91270000  0.82540000  1.0
  O  O28  1  0.06380000  0.24500000  0.49000000  1.0
  O  O29  1  0.56380000  0.75500000  0.51000000  1.0
