# generated using pymatgen
data_Cs2SiB4O9
_symmetry_space_group_name_H-M   'P 1'
_cell_length_a   6.76429419
_cell_length_b   6.87757601
_cell_length_c   6.93253942
_cell_angle_alpha   118.77354150
_cell_angle_beta   118.22483321
_cell_angle_gamma   91.72511385
_symmetry_Int_Tables_number   1
_chemical_formula_structural   Cs2SiB4O9
_chemical_formula_sum   'Cs2 Si1 B4 O9'
_cell_volume   234.80024307
_cell_formula_units_Z   1
loop_
 _symmetry_equiv_pos_site_id
 _symmetry_equiv_pos_as_xyz
  1  'x, y, z'
loop_
 _atom_site_type_symbol
 _atom_site_label
 _atom_site_symmetry_multiplicity
 _atom_site_fract_x
 _atom_site_fract_y
 _atom_site_fract_z
 _atom_site_occupancy
  B  B0  1  0.08668800  0.97299200  0.83446100  1
  B  B1  1  0.74777300  0.86146900  0.83446100  1
  B  B2  1  0.98472300  0.28134900  0.11664300  1
  B  B3  1  0.13192000  0.83529400  0.11664300  1
  Cs  Cs4  1  0.50681600  0.50681600  0.01363200  1
  Cs  Cs5  1  0.74586200  0.24586200  0.49172400  1
  O  O6  1  0.49902300  0.71703400  0.68082000  1
  O  O7  1  0.18179700  0.96378600  0.68082000  1
  O  O8  1  0.28899900  0.81939700  0.32497800  1
  O  O9  1  0.03597900  0.50558100  0.32497800  1
  O  O10  1  0.23226800  0.89572400  0.01251000  1
  O  O11  1  0.78024200  0.11678600  0.01251000  1
  O  O12  1  0.12726500  0.23237300  0.02150100  1
  O  O13  1  0.89423600  0.78912800  0.02150100  1
  O  O14  1  0.83587500  0.83587500  0.67175000  1
  Si  Si15  1  0.25663300  0.75663300  0.51326600  1
