# generated using pymatgen
data_K2NbOF5
_symmetry_space_group_name_H-M   'P 1'
_cell_length_a   6.04197169
_cell_length_b   6.34692132
_cell_length_c   6.58869236
_cell_angle_alpha   101.00173583
_cell_angle_beta   113.08830145
_cell_angle_gamma   113.29061821
_symmetry_Int_Tables_number   1
_chemical_formula_structural   K2NbOF5
_chemical_formula_sum   'K2 Nb1 O1 F5'
_cell_volume   194.77677986
_cell_formula_units_Z   1
loop_
 _symmetry_equiv_pos_site_id
 _symmetry_equiv_pos_as_xyz
  1  'x, y, z'
loop_
 _atom_site_type_symbol
 _atom_site_label
 _atom_site_symmetry_multiplicity
 _atom_site_fract_x
 _atom_site_fract_y
 _atom_site_fract_z
 _atom_site_occupancy
  K  K0  1  0.48530728  0.19776884  0.75368288  1
  K  K1  1  0.52770336  0.80424118  0.22058177  1
  Nb  Nb2  1  0.01637389  0.99842618  0.00611698  1
  O  O3  1  0.20428421  0.98059948  0.28106178  1
  F  F4  1  0.84518788  0.16413889  0.12076713  1
  F  F5  1  0.14588381  0.83669593  0.83103396  1
  F  F6  1  0.66585541  0.67490436  0.87683536  1
  F  F7  1  0.31988894  0.32586017  0.06920973  1
  F  F8  1  0.78951622  0.01736497  0.68084040  1
