# generated using pymatgen
data_H3IO
_symmetry_space_group_name_H-M   'P 1'
_cell_length_a   4.59937009
_cell_length_b   4.59937009
_cell_length_c   4.59937009
_cell_angle_alpha   70.05362516
_cell_angle_beta   70.05362516
_cell_angle_gamma   70.05362516
_symmetry_Int_Tables_number   1
_chemical_formula_structural   H3IO
_chemical_formula_sum   'H3 I1 O1'
_cell_volume   83.14519418
_cell_formula_units_Z   1
loop_
 _symmetry_equiv_pos_site_id
 _symmetry_equiv_pos_as_xyz
  1  'x, y, z'
loop_
 _atom_site_type_symbol
 _atom_site_label
 _atom_site_symmetry_multiplicity
 _atom_site_fract_x
 _atom_site_fract_y
 _atom_site_fract_z
 _atom_site_occupancy
  H  H0  1  0.30884282  0.62736097  0.30884282  1
  H  H1  1  0.30884282  0.30884282  0.62736097  1
  H  H2  1  0.62736097  0.30884282  0.30884282  1
  I  I3  1  0.99637637  0.99637637  0.99637637  1
  O  O4  1  0.44946503  0.44946503  0.44946503  1
