# generated using pymatgen
data_KPH2SeO3
_symmetry_space_group_name_H-M   'P 1'
_cell_length_a   4.53746268
_cell_length_b   4.53746268
_cell_length_c   6.05354885
_cell_angle_alpha   76.39334731
_cell_angle_beta   76.39334731
_cell_angle_gamma   88.21539657
_symmetry_Int_Tables_number   1
_chemical_formula_structural   KPH2SeO3
_chemical_formula_sum   'K1 P1 H2 Se1 O3'
_cell_volume   117.69740058
_cell_formula_units_Z   1
loop_
 _symmetry_equiv_pos_site_id
 _symmetry_equiv_pos_as_xyz
  1  'x, y, z'
loop_
 _atom_site_type_symbol
 _atom_site_label
 _atom_site_symmetry_multiplicity
 _atom_site_fract_x
 _atom_site_fract_y
 _atom_site_fract_z
 _atom_site_occupancy
  H  H0  1  0.79638273  0.16200059  0.19133349  1
  H  H1  1  0.16200059  0.79638273  0.19133349  1
  K  K2  1  0.15935405  0.15935405  0.60681152  1
  O  O3  1  0.89539100  0.89539100  0.10846896  1
  O  O4  1  0.73881725  0.34581949  0.27243700  1
  O  O5  1  0.34581949  0.73881725  0.27243700  1
  P  P6  1  0.65435435  0.65435435  0.11752098  1
  Se  Se7  1  0.61371054  0.61371054  0.78164956  1
