# generated using pymatgen
data_GeH3Br
_symmetry_space_group_name_H-M   'P 1'
_cell_length_a   4.51387666
_cell_length_b   4.51387666
_cell_length_c   8.11177677
_cell_angle_alpha   90.00000000
_cell_angle_beta   90.00000000
_cell_angle_gamma   103.90436007
_symmetry_Int_Tables_number   1
_chemical_formula_structural   GeH3Br
_chemical_formula_sum   'Ge2 H6 Br2'
_cell_volume   160.43517386
_cell_formula_units_Z   2
loop_
 _symmetry_equiv_pos_site_id
 _symmetry_equiv_pos_as_xyz
  1  'x, y, z'
loop_
 _atom_site_type_symbol
 _atom_site_label
 _atom_site_symmetry_multiplicity
 _atom_site_fract_x
 _atom_site_fract_y
 _atom_site_fract_z
 _atom_site_occupancy
  Br  Br0  1  0.83978297  0.83978297  0.25880392  1
  Br  Br1  1  0.16021703  0.16021703  0.75880392  1
  Ge  Ge2  1  0.54559135  0.54559135  0.04219021  1
  Ge  Ge3  1  0.45440865  0.45440865  0.54219021  1
  H  H4  1  0.21089998  0.57379666  0.45089858  1
  H  H5  1  0.78910002  0.42620334  0.95089858  1
  H  H6  1  0.42620334  0.78910002  0.95089858  1
  H  H7  1  0.57379666  0.21089998  0.45089858  1
  H  H8  1  0.68856177  0.68856177  0.64004071  1
  H  H9  1  0.31143823  0.31143823  0.14004071  1
