# generated using pymatgen
data_Sr2P6O17
_symmetry_space_group_name_H-M   'P 1'
_cell_length_a   7.16573203
_cell_length_b   13.28677095
_cell_length_c   7.17896708
_cell_angle_alpha   90.00000000
_cell_angle_beta   105.33324748
_cell_angle_gamma   90.00000000
_symmetry_Int_Tables_number   1
_chemical_formula_structural   Sr2P6O17
_chemical_formula_sum   'Sr4 P12 O34'
_cell_volume   659.17547045
_cell_formula_units_Z   2
loop_
 _symmetry_equiv_pos_site_id
 _symmetry_equiv_pos_as_xyz
  1  'x, y, z'
loop_
 _atom_site_type_symbol
 _atom_site_label
 _atom_site_symmetry_multiplicity
 _atom_site_fract_x
 _atom_site_fract_y
 _atom_site_fract_z
 _atom_site_occupancy
  Sr  Sr0  1  0.81000426  0.78241037  0.12103655  1
  Sr  Sr1  1  0.18999574  0.28241037  0.87896345  1
  Sr  Sr2  1  0.21441901  0.99643801  0.17018340  1
  Sr  Sr3  1  0.78558099  0.49643801  0.82981660  1
  P  P4  1  0.67768663  0.74848789  0.61809363  1
  P  P5  1  0.32231337  0.24848789  0.38190637  1
  P  P6  1  0.65966712  0.96312177  0.61536879  1
  P  P7  1  0.34033288  0.46312177  0.38463121  1
  P  P8  1  0.01378559  0.06214428  0.60261024  1
  P  P9  1  0.98621441  0.56214428  0.39738976  1
  P  P10  1  0.75572981  0.24170960  0.47845802  1
  P  P11  1  0.24427019  0.74170960  0.52154198  1
  P  P12  1  0.74119271  0.27410928  0.05450931  1
  P  P13  1  0.25880729  0.77410928  0.94549069  1
  P  P14  1  0.68084839  0.05237750  0.00139365  1
  P  P15  1  0.31915161  0.55237750  0.99860635  1
  O  O16  1  0.75551763  0.68552891  0.79115309  1
  O  O17  1  0.24448237  0.18552891  0.20884691  1
  O  O18  1  0.77540950  0.76108595  0.46391553  1
  O  O19  1  0.22459050  0.26108595  0.53608447  1
  O  O20  1  0.64886998  0.85788767  0.71329573  1
  O  O21  1  0.35113002  0.35788767  0.28670427  1
  O  O22  1  0.52043403  0.97429636  0.42845367  1
  O  O23  1  0.47956597  0.47429636  0.57154633  1
  O  O24  1  0.87574994  0.96701674  0.60794981  1
  O  O25  1  0.12425006  0.46701674  0.39205019  1
  O  O26  1  0.14739165  0.03338570  0.48929393  1
  O  O27  1  0.85260835  0.53338570  0.51070607  1
  O  O28  1  0.07862302  0.10263093  0.80189193  1
  O  O29  1  0.92137698  0.60263093  0.19810807  1
  O  O30  1  0.84827200  0.13640970  0.47135708  1
  O  O31  1  0.15172800  0.63640970  0.52864292  1
  O  O32  1  0.36338721  0.54305867  0.23371712  1
  O  O33  1  0.63661279  0.04305867  0.76628288  1
  O  O34  1  0.17093329  0.47528462  0.91197704  1
  O  O35  1  0.82906671  0.97528462  0.08802296  1
  O  O36  1  0.50748461  0.55849890  0.95515067  1
  O  O37  1  0.49251539  0.05849890  0.04484933  1
  O  O38  1  0.20812801  0.65838396  0.96303647  1
  O  O39  1  0.79187199  0.15838396  0.03696353  1
  O  O40  1  0.09248524  0.83456563  0.96878678  1
  O  O41  1  0.90751476  0.33456563  0.03121322  1
  O  O42  1  0.45530241  0.79973079  0.06235821  1
  O  O43  1  0.54469759  0.29973079  0.93764179  1
  O  O44  1  0.25727544  0.78798659  0.72159938  1
  O  O45  1  0.74272456  0.28798659  0.27840062  1
  O  O46  1  0.45699662  0.71666398  0.51988967  1
  O  O47  1  0.54300338  0.21666398  0.48011033  1
  O  O48  1  0.14751883  0.80658620  0.36037225  1
  O  O49  1  0.85248117  0.30658620  0.63962775  1
