# generated using pymatgen
data_K2SrCl4
_symmetry_space_group_name_H-M   'P 1'
_cell_length_a   7.80654642
_cell_length_b   12.93098870
_cell_length_c   7.94183193
_cell_angle_alpha   90.00000000
_cell_angle_beta   109.22326421
_cell_angle_gamma   90.00000000
_symmetry_Int_Tables_number   1
_chemical_formula_structural   K2SrCl4
_chemical_formula_sum   'K8 Sr4 Cl16'
_cell_volume   756.99852660
_cell_formula_units_Z   4
loop_
 _symmetry_equiv_pos_site_id
 _symmetry_equiv_pos_as_xyz
  1  'x, y, z'
loop_
 _atom_site_type_symbol
 _atom_site_label
 _atom_site_symmetry_multiplicity
 _atom_site_fract_x
 _atom_site_fract_y
 _atom_site_fract_z
 _atom_site_occupancy
  K  K0  1  0.30040085  0.05531262  0.17447554  1
  K  K1  1  0.82540285  0.55827484  0.70568358  1
  K  K2  1  0.94403854  0.18950393  0.57419988  1
  K  K3  1  0.26750489  0.37602389  0.00635778  1
  K  K4  1  0.82540285  0.44172516  0.20568358  1
  K  K5  1  0.94403854  0.81049607  0.07419988  1
  K  K6  1  0.30040085  0.94468738  0.67447554  1
  K  K7  1  0.26750489  0.62397611  0.50635778  1
  Sr  Sr8  1  0.42664136  0.70468680  0.04020345  1
  Sr  Sr9  1  0.42664136  0.29531320  0.54020345  1
  Sr  Sr10  1  0.74395567  0.87720126  0.51258094  1
  Sr  Sr11  1  0.74395567  0.12279874  0.01258094  1
  Cl  Cl12  1  0.60861709  0.24176492  0.25320474  1
  Cl  Cl13  1  0.77883361  0.30827753  0.81822863  1
  Cl  Cl14  1  0.09697018  0.75890918  0.73955849  1
  Cl  Cl15  1  0.11231998  0.41443486  0.58574790  1
  Cl  Cl16  1  0.34833209  0.82322644  0.32058531  1
  Cl  Cl17  1  0.51167001  0.47831807  0.38639651  1
  Cl  Cl18  1  0.34833209  0.17677356  0.82058531  1
  Cl  Cl19  1  0.56591425  0.93010798  0.05888900  1
  Cl  Cl20  1  0.51167001  0.52168193  0.88639651  1
  Cl  Cl21  1  0.56591425  0.06989202  0.55888900  1
  Cl  Cl22  1  0.96939964  0.00288678  0.85248826  1
  Cl  Cl23  1  0.77883361  0.69172247  0.31822863  1
  Cl  Cl24  1  0.96939964  0.99711322  0.35248826  1
  Cl  Cl25  1  0.09697018  0.24109082  0.23955849  1
  Cl  Cl26  1  0.11231998  0.58556514  0.08574790  1
  Cl  Cl27  1  0.60861709  0.75823508  0.75320474  1
