# generated using pymatgen
data_PbO
_symmetry_space_group_name_H-M   'P 1'
_cell_length_a   5.48000000
_cell_length_b   4.74000000
_cell_length_c   5.88000000
_cell_angle_alpha   90.00000000
_cell_angle_beta   90.00000000
_cell_angle_gamma   90.00000000
_symmetry_Int_Tables_number   1
_chemical_formula_structural   PbO
_chemical_formula_sum   'Pb4 O4'
_cell_volume   152.73417600
_cell_formula_units_Z   4
loop_
 _symmetry_equiv_pos_site_id
 _symmetry_equiv_pos_as_xyz
  1  'x, y, z'
loop_
 _atom_site_type_symbol
 _atom_site_label
 _atom_site_symmetry_multiplicity
 _atom_site_fract_x
 _atom_site_fract_y
 _atom_site_fract_z
 _atom_site_occupancy
  Pb  Pb0  1  0.51389000  0.75000000  0.73060000  1.0
  Pb  Pb1  1  0.01389000  0.25000000  0.73060000  1.0
  Pb  Pb2  1  0.48611000  0.25000000  0.23060000  1.0
  Pb  Pb3  1  0.98611000  0.75000000  0.23060000  1.0
  O  O4  1  0.85000000  0.64170000  0.88890000  1.0
  O  O5  1  0.35000000  0.35830000  0.88890000  1.0
  O  O6  1  0.65000000  0.64170000  0.38890000  1.0
  O  O7  1  0.15000000  0.35830000  0.38890000  1.0
