# generated using pymatgen
data_SiO2
_symmetry_space_group_name_H-M   'P 1'
_cell_length_a   5.02400000
_cell_length_b   11.09771807
_cell_length_c   11.09771807
_cell_angle_alpha   103.13836350
_cell_angle_beta   90.00000000
_cell_angle_gamma   90.00000000
_symmetry_Int_Tables_number   1
_chemical_formula_structural   SiO2
_chemical_formula_sum   'Si12 O24'
_cell_volume   602.55608314
_cell_formula_units_Z   12
loop_
 _symmetry_equiv_pos_site_id
 _symmetry_equiv_pos_as_xyz
  1  'x, y, z'
loop_
 _atom_site_type_symbol
 _atom_site_label
 _atom_site_symmetry_multiplicity
 _atom_site_fract_x
 _atom_site_fract_y
 _atom_site_fract_z
 _atom_site_occupancy
  Si  Si24  1  0.49470000  0.00521000  0.58279000  1.0
  Si  Si25  1  0.99470000  0.99479000  0.41721000  1.0
  Si  Si26  1  0.49470000  0.41721000  0.99479000  1.0
  Si  Si27  1  0.99470000  0.58279000  0.00521000  1.0
  Si  Si28  1  0.91400000  0.24612000  0.34260000  1.0
  Si  Si29  1  0.41400000  0.75388000  0.65740000  1.0
  Si  Si30  1  0.91400000  0.65740000  0.75388000  1.0
  Si  Si31  1  0.41400000  0.34260000  0.24612000  1.0
  Si  Si32  1  0.39000000  0.27501000  0.72499000  1.0
  Si  Si33  1  0.89000000  0.72499000  0.27501000  1.0
  Si  Si34  1  0.88950000  0.37833000  0.62167000  1.0
  Si  Si35  1  0.38950000  0.62167000  0.37833000  1.0
  O  O0  1  0.47560000  0.89330000  0.64990000  1.0
  O  O1  1  0.97560000  0.10670000  0.35010000  1.0
  O  O2  1  0.47560000  0.35010000  0.10670000  1.0
  O  O3  1  0.97560000  0.64990000  0.89330000  1.0
  O  O4  1  0.94230000  0.33550000  0.47730000  1.0
  O  O5  1  0.44230000  0.66450000  0.52270000  1.0
  O  O6  1  0.94230000  0.52270000  0.66450000  1.0
  O  O7  1  0.44230000  0.47730000  0.33550000  1.0
  O  O8  1  0.09010000  0.30690000  0.69310000  1.0
  O  O9  1  0.59010000  0.69310000  0.30690000  1.0
  O  O10  1  0.43730000  0.12930000  0.68350000  1.0
  O  O11  1  0.93730000  0.87070000  0.31650000  1.0
  O  O12  1  0.08900000  0.65270000  0.34730000  1.0
  O  O13  1  0.58900000  0.34730000  0.65270000  1.0
  O  O14  1  0.28960000  0.52950000  0.01350000  1.0
  O  O15  1  0.78960000  0.47050000  0.98650000  1.0
  O  O16  1  0.28960000  0.98650000  0.47050000  1.0
  O  O17  1  0.78960000  0.01350000  0.52950000  1.0
  O  O18  1  0.11580000  0.29080000  0.25000000  1.0
  O  O19  1  0.61580000  0.70920000  0.75000000  1.0
  O  O20  1  0.11580000  0.75000000  0.70920000  1.0
  O  O21  1  0.61580000  0.25000000  0.29080000  1.0
  O  O22  1  0.93730000  0.68350000  0.12930000  1.0
  O  O23  1  0.43730000  0.31650000  0.87070000  1.0
