# generated using pymatgen
data_Sr6Nb2O11
_symmetry_space_group_name_H-M   'P 1'
_cell_length_a   5.94136812
_cell_length_b   5.94825594
_cell_length_c   19.21840238
_cell_angle_alpha   81.73009133
_cell_angle_beta   82.44001629
_cell_angle_gamma   60.13917955
_symmetry_Int_Tables_number   1
_chemical_formula_structural   Sr6Nb2O11
_chemical_formula_sum   'Sr12 Nb4 O22'
_cell_volume   581.47306004
_cell_formula_units_Z   2
loop_
 _symmetry_equiv_pos_site_id
 _symmetry_equiv_pos_as_xyz
  1  'x, y, z'
loop_
 _atom_site_type_symbol
 _atom_site_label
 _atom_site_symmetry_multiplicity
 _atom_site_fract_x
 _atom_site_fract_y
 _atom_site_fract_z
 _atom_site_occupancy
  Sr  Sr0  1  0.31586268  0.19629404  0.07825132  1
  Sr  Sr1  1  0.61978201  0.54841544  0.10695503  1
  Sr  Sr2  1  0.59098959  0.47171751  0.28989558  1
  Sr  Sr3  1  0.92688893  0.75301053  0.38945703  1
  Sr  Sr4  1  0.95352309  0.83470200  0.20558115  1
  Sr  Sr5  1  0.80358569  0.79850995  0.57787460  1
  Sr  Sr6  1  0.15400199  0.11443750  0.60725116  1
  Sr  Sr7  1  0.10607859  0.01596781  0.79090962  1
  Sr  Sr8  1  0.23610008  0.06961922  0.41937932  1
  Sr  Sr9  1  0.40154514  0.34205592  0.89005678  1
  Sr  Sr10  1  0.45281642  0.38874126  0.70717625  1
  Sr  Sr11  1  0.75597713  0.64434590  0.91823469  1
  Nb  Nb12  1  0.95449931  0.00033755  0.99842125  1
  Nb  Nb13  1  0.26952033  0.15273401  0.24889343  1
  Nb  Nb14  1  0.60221345  0.43409405  0.49840828  1
  Nb  Nb15  1  0.77724229  0.71147440  0.74811918  1
  O  O16  1  0.97766337  0.27031490  0.18404179  1
  O  O17  1  0.36871026  0.40310697  0.19056112  1
  O  O18  1  0.71989835  0.84608323  0.02501003  1
  O  O19  1  0.14426292  0.86111851  0.08007928  1
  O  O20  1  0.52199452  0.87098172  0.18703281  1
  O  O21  1  0.16207974  0.90273498  0.30176011  1
  O  O22  1  0.41197580  0.55974422  0.41691089  1
  O  O23  1  0.01954469  0.42484530  0.31383219  1
  O  O24  1  0.55698790  0.04646669  0.31423753  1
  O  O25  1  0.83401468  0.07088633  0.47113547  1
  O  O26  1  0.46690714  0.30909610  0.57990751  1
  O  O27  1  0.01600468  0.82193699  0.68487641  1
  O  O28  1  0.44810897  0.79748891  0.52571349  1
  O  O29  1  0.61967998  0.33613647  0.99874106  1
  O  O30  1  0.93811589  0.43443487  0.49845477  1
  O  O31  1  0.85304405  0.44254262  0.68244550  1
  O  O32  1  0.46923361  0.95876333  0.69342775  1
  O  O33  1  0.54813270  0.60006858  0.81203730  1
  O  O34  1  0.10874424  0.23527270  0.97104914  1
  O  O35  1  0.68134346  0.99821003  0.81074035  1
  O  O36  1  0.07771048  0.45289629  0.80639046  1
  O  O37  1  0.08753687  0.81614016  0.91697236  1
