# generated using pymatgen
data_Rb2CdGeS4
_symmetry_space_group_name_H-M   'P 1'
_cell_length_a   6.47667276
_cell_length_b   6.47667276
_cell_length_c   6.47667276
_cell_angle_alpha   105.14398638
_cell_angle_beta   105.14398638
_cell_angle_gamma   118.52281965
_symmetry_Int_Tables_number   1
_chemical_formula_structural   Rb2CdGeS4
_chemical_formula_sum   'Rb2 Cd1 Ge1 S4'
_cell_volume   205.16838520
_cell_formula_units_Z   1
loop_
 _symmetry_equiv_pos_site_id
 _symmetry_equiv_pos_as_xyz
  1  'x, y, z'
loop_
 _atom_site_type_symbol
 _atom_site_label
 _atom_site_symmetry_multiplicity
 _atom_site_fract_x
 _atom_site_fract_y
 _atom_site_fract_z
 _atom_site_occupancy
  Cd  Cd0  1  0.50000000  0.50000000  0.00000000  1
  Ge  Ge1  1  0.00000000  0.00000000  0.00000000  1
  Rb  Rb2  1  0.50000000  -0.00000000  0.50000000  1
  Rb  Rb3  1  -0.00000000  0.50000000  0.50000000  1
  S  S4  1  0.05838481  0.37087963  0.00000000  1
  S  S5  1  0.37087963  0.05838481  -0.00000000  1
  S  S6  1  0.94161519  0.94161519  0.31249482  1
  S  S7  1  0.62912037  0.62912037  0.68750518  1
