# generated using pymatgen
data_K(SnSe2)2
_symmetry_space_group_name_H-M   'P 1'
_cell_length_a   6.54474582
_cell_length_b   7.53098825
_cell_length_c   10.12353490
_cell_angle_alpha   88.07969292
_cell_angle_beta   71.14077190
_cell_angle_gamma   84.04968828
_symmetry_Int_Tables_number   1
_chemical_formula_structural   K(SnSe2)2
_chemical_formula_sum   'K2 Sn4 Se8'
_cell_volume   469.64177135
_cell_formula_units_Z   2
loop_
 _symmetry_equiv_pos_site_id
 _symmetry_equiv_pos_as_xyz
  1  'x, y, z'
loop_
 _atom_site_type_symbol
 _atom_site_label
 _atom_site_symmetry_multiplicity
 _atom_site_fract_x
 _atom_site_fract_y
 _atom_site_fract_z
 _atom_site_occupancy
  K  K0  1  0.65515916  0.03521194  0.31263935  1
  K  K1  1  0.96779851  0.03521194  0.68736065  1
  Se  Se2  1  0.50758412  0.53685464  0.37978374  1
  Se  Se3  1  0.88736786  0.53685464  0.62021626  1
  Se  Se4  1  0.63422700  0.87781134  0.00000000  1
  Se  Se5  1  0.23964459  0.65099048  0.80431417  1
  Se  Se6  1  0.62656430  0.33153761  0.00000000  1
  Se  Se7  1  0.14081169  0.12226356  0.32801411  1
  Se  Se8  1  0.46882580  0.12226356  0.67198589  1
  Se  Se9  1  0.04395876  0.65099048  0.19568583  1
  Sn  Sn10  1  0.41164923  0.62583635  0.00000000  1
  Sn  Sn11  1  0.51754800  0.44291075  0.62347196  1
  Sn  Sn12  1  0.14101996  0.44291075  0.37652804  1
  Sn  Sn13  1  0.31083203  0.13175296  0.00000000  1
