# generated using pymatgen
data_Cd(IO3)2
_symmetry_space_group_name_H-M   'P 1'
_cell_length_a   5.58200000
_cell_length_b   5.85600000
_cell_length_c   17.47000000
_cell_angle_alpha   90.00000000
_cell_angle_beta   90.00000000
_cell_angle_gamma   90.00000000
_symmetry_Int_Tables_number   1
_chemical_formula_structural   Cd(IO3)2
_chemical_formula_sum   'Cd4 I8 O24'
_cell_volume   571.06271424
_cell_formula_units_Z   4
loop_
 _symmetry_equiv_pos_site_id
 _symmetry_equiv_pos_as_xyz
  1  'x, y, z'
loop_
 _atom_site_type_symbol
 _atom_site_label
 _atom_site_symmetry_multiplicity
 _atom_site_fract_x
 _atom_site_fract_y
 _atom_site_fract_z
 _atom_site_occupancy
  Cd  Cd0  1  0.70714000  0.17191000  0.09346000  1.0
  Cd  Cd1  1  0.20714000  0.32809000  0.90654000  1.0
  Cd  Cd2  1  0.29286000  0.67191000  0.40654000  1.0
  Cd  Cd3  1  0.79286000  0.82809000  0.59346000  1.0
  I  I4  1  0.24557000  0.78583000  0.70870000  1.0
  I  I5  1  0.74557000  0.71417000  0.29130000  1.0
  I  I6  1  0.75443000  0.28583000  0.79130000  1.0
  I  I7  1  0.25443000  0.21417000  0.20870000  1.0
  I  I8  1  0.02919000  0.63699000  0.07754000  1.0
  I  I9  1  0.52919000  0.86301000  0.92246000  1.0
  I  I10  1  0.97081000  0.13699000  0.42246000  1.0
  I  I11  1  0.47081000  0.36301000  0.57754000  1.0
  O  O12  1  0.54560000  0.60230000  0.51480000  1.0
  O  O13  1  0.04560000  0.89770000  0.48520000  1.0
  O  O14  1  0.45440000  0.10230000  0.98520000  1.0
  O  O15  1  0.95440000  0.39770000  0.01480000  1.0
  O  O16  1  0.60700000  0.49430000  0.66130000  1.0
  O  O17  1  0.10700000  0.00570000  0.33870000  1.0
  O  O18  1  0.39300000  0.99430000  0.83870000  1.0
  O  O19  1  0.89300000  0.50570000  0.16130000  1.0
  O  O20  1  0.71960000  0.18310000  0.54820000  1.0
  O  O21  1  0.21960000  0.31690000  0.45180000  1.0
  O  O22  1  0.28040000  0.68310000  0.95180000  1.0
  O  O23  1  0.78040000  0.81690000  0.04820000  1.0
  O  O24  1  0.04170000  0.02030000  0.16500000  1.0
  O  O25  1  0.54170000  0.47970000  0.83500000  1.0
  O  O26  1  0.95830000  0.52030000  0.33500000  1.0
  O  O27  1  0.45830000  0.97970000  0.66500000  1.0
  O  O28  1  0.36450000  0.36940000  0.12490000  1.0
  O  O29  1  0.86450000  0.13060000  0.87510000  1.0
  O  O30  1  0.63550000  0.86940000  0.37510000  1.0
  O  O31  1  0.13550000  0.63060000  0.62490000  1.0
  O  O32  1  0.51850000  0.03270000  0.20810000  1.0
  O  O33  1  0.01850000  0.46730000  0.79190000  1.0
  O  O34  1  0.48150000  0.53270000  0.29190000  1.0
  O  O35  1  0.98150000  0.96730000  0.70810000  1.0
