# generated using pymatgen
data_LiAl(Si2O5)2
_symmetry_space_group_name_H-M   'P 1'
_cell_length_a   7.73585500
_cell_length_b   5.20787600
_cell_length_c   11.89826480
_cell_angle_alpha   90.00000000
_cell_angle_beta   112.83774565
_cell_angle_gamma   90.00000000
_symmetry_Int_Tables_number   1
_chemical_formula_structural   LiAl(Si2O5)2
_chemical_formula_sum   'Li2 Al2 Si8 O20'
_cell_volume   441.77248434
_cell_formula_units_Z   2
loop_
 _symmetry_equiv_pos_site_id
 _symmetry_equiv_pos_as_xyz
  1  'x, y, z'
loop_
 _atom_site_type_symbol
 _atom_site_label
 _atom_site_symmetry_multiplicity
 _atom_site_fract_x
 _atom_site_fract_y
 _atom_site_fract_z
 _atom_site_occupancy
  Li  Li0  1  0.00029400  0.25135400  0.75018400  1
  Li  Li1  1  0.00029400  0.74864600  0.25018400  1
  Al  Al2  1  0.00009000  0.75324200  0.75195600  1
  Al  Al3  1  0.00009000  0.24675800  0.25195600  1
  Si  Si4  1  0.29103200  0.51093400  0.49985300  1
  Si  Si5  1  0.29103200  0.48906600  0.99985300  1
  Si  Si6  1  0.71248000  0.51501100  0.00496500  1
  Si  Si7  1  0.71248000  0.48498900  0.50496500  1
  Si  Si8  1  0.28801000  0.00995100  0.64828900  1
  Si  Si9  1  0.28801000  0.99004900  0.14828900  1
  Si  Si10  1  0.70894500  0.01221500  0.85411800  1
  Si  Si11  1  0.70894500  0.98778500  0.35411800  1
  O  O12  1  0.50393200  0.49223800  0.50648600  1
  O  O13  1  0.50393200  0.50776200  0.00648600  1
  O  O14  1  0.49696600  0.97782000  0.75396500  1
  O  O15  1  0.49696600  0.02218000  0.25396500  1
  O  O16  1  0.26178500  0.30055300  0.59248800  1
  O  O17  1  0.26178500  0.69944700  0.09248800  1
  O  O18  1  0.73187400  0.30301500  0.90940000  1
  O  O19  1  0.73187400  0.69698500  0.40940000  1
  O  O20  1  0.13824000  0.53255300  0.86191600  1
  O  O21  1  0.13824000  0.46744700  0.36191600  1
  O  O22  1  0.86998200  0.53099500  0.64062600  1
  O  O23  1  0.86998200  0.46900500  0.14062600  1
  O  O24  1  0.26117200  0.80140900  0.54032600  1
  O  O25  1  0.26117200  0.19859100  0.04032600  1
  O  O26  1  0.74640400  0.80229600  0.96281800  1
  O  O27  1  0.74640400  0.19770400  0.46281800  1
  O  O28  1  0.13007900  0.97338900  0.70521200  1
  O  O29  1  0.13007900  0.02661100  0.20521200  1
  O  O30  1  0.86221500  0.97380700  0.79289700  1
  O  O31  1  0.86221500  0.02619300  0.29289700  1
