# generated using pymatgen
data_MgH8(ClO6)2
_symmetry_space_group_name_H-M   'P 1'
_cell_length_a   6.06050500
_cell_length_b   6.85708414
_cell_length_c   6.85708414
_cell_angle_alpha   73.08736153
_cell_angle_beta   72.31875103
_cell_angle_gamma   72.31875103
_symmetry_Int_Tables_number   1
_chemical_formula_structural   MgH8(ClO6)2
_chemical_formula_sum   'Mg1 H8 Cl2 O12'
_cell_volume   252.40471963
_cell_formula_units_Z   1
loop_
 _symmetry_equiv_pos_site_id
 _symmetry_equiv_pos_as_xyz
  1  'x, y, z'
loop_
 _atom_site_type_symbol
 _atom_site_label
 _atom_site_symmetry_multiplicity
 _atom_site_fract_x
 _atom_site_fract_y
 _atom_site_fract_z
 _atom_site_occupancy
  Cl  Cl0  1  0.09198300  0.31595500  0.28268300  1
  Cl  Cl1  1  0.90801700  0.71731700  0.68404500  1
  H  H2  1  0.62769600  0.09969400  0.28882900  1
  H  H3  1  0.81979300  0.17121000  0.09324400  1
  H  H4  1  0.63712100  0.28734900  0.62286500  1
  H  H5  1  0.36287900  0.37713500  0.71265100  1
  H  H6  1  0.63548300  0.63707000  0.26898000  1
  H  H7  1  0.37230400  0.71117100  0.90030600  1
  H  H8  1  0.36451700  0.73102000  0.36293000  1
  H  H9  1  0.18020700  0.90675600  0.82879000  1
  Mg  Mg10  1  0.50000000  0.00970300  0.99029700  1
  O  O11  1  0.66343900  0.13816000  0.13580100  1
  O  O12  1  0.14442600  0.17374600  0.13522900  1
  O  O13  1  0.20295500  0.20386000  0.45509900  1
  O  O14  1  0.50000000  0.26093300  0.73906700  1
  O  O15  1  0.83096700  0.37021800  0.35949800  1
  O  O16  1  0.17370900  0.50368700  0.16940100  1
  O  O17  1  0.79704500  0.54490100  0.79614000  1
  O  O18  1  0.16903300  0.64050200  0.62978200  1
  O  O19  1  0.50000000  0.75584400  0.24415600  1
  O  O20  1  0.82629100  0.83059900  0.49631300  1
  O  O21  1  0.33656100  0.86419900  0.86184000  1
  O  O22  1  0.85557400  0.86477100  0.82625400  1
