# generated using pymatgen
data_SrLi2GeO4
_symmetry_space_group_name_H-M   'P 1'
_cell_length_a   5.01107905
_cell_length_b   5.01107905
_cell_length_c   5.01107905
_cell_angle_alpha   95.89287076
_cell_angle_beta   116.65810349
_cell_angle_gamma   116.65810349
_symmetry_Int_Tables_number   1
_chemical_formula_structural   SrLi2GeO4
_chemical_formula_sum   'Sr1 Li2 Ge1 O4'
_cell_volume   92.93947816
_cell_formula_units_Z   1
loop_
 _symmetry_equiv_pos_site_id
 _symmetry_equiv_pos_as_xyz
  1  'x, y, z'
loop_
 _atom_site_type_symbol
 _atom_site_label
 _atom_site_symmetry_multiplicity
 _atom_site_fract_x
 _atom_site_fract_y
 _atom_site_fract_z
 _atom_site_occupancy
  Ge  Ge0  1  0.00000000  0.50000000  0.50000000  1
  Li  Li1  1  0.50000000  0.25000000  0.75000000  1
  Li  Li2  1  0.50000000  0.75000000  0.25000000  1
  O  O3  1  0.61111644  0.15276371  0.15276371  1
  O  O4  1  0.38888356  0.54164727  0.54164727  1
  O  O5  1  0.00000000  0.45835273  0.84723629  1
  O  O6  1  1.00000000  0.84723629  0.45835273  1
  Sr  Sr7  1  0.00000000  0.00000000  0.00000000  1
