# generated using pymatgen
data_Cs2Na2SnGeF12
_symmetry_space_group_name_H-M   'P 1'
_cell_length_a   6.67998400
_cell_length_b   8.61901100
_cell_length_c   11.32064800
_cell_angle_alpha   90.00000000
_cell_angle_beta   90.00000000
_cell_angle_gamma   90.00000000
_symmetry_Int_Tables_number   1
_chemical_formula_structural   Cs2Na2SnGeF12
_chemical_formula_sum   'Cs4 Na4 Sn2 Ge2 F24'
_cell_volume   651.78467362
_cell_formula_units_Z   2
loop_
 _symmetry_equiv_pos_site_id
 _symmetry_equiv_pos_as_xyz
  1  'x, y, z'
loop_
 _atom_site_type_symbol
 _atom_site_label
 _atom_site_symmetry_multiplicity
 _atom_site_fract_x
 _atom_site_fract_y
 _atom_site_fract_z
 _atom_site_occupancy
  Cs  Cs0  1  0.82193400  0.24550400  0.24971500  1
  Cs  Cs1  1  0.17806600  0.75449600  0.74971500  1
  Cs  Cs2  1  0.17806600  0.24550400  0.74971500  1
  Cs  Cs3  1  0.82193400  0.75449600  0.24971500  1
  Na  Na4  1  0.29706200  0.00000000  0.07185100  1
  Na  Na5  1  0.70369500  0.50000000  0.92802700  1
  Na  Na6  1  0.29630500  0.50000000  0.42802700  1
  Na  Na7  1  0.70293800  0.00000000  0.57185100  1
  Sn  Sn8  1  0.27023500  0.50000000  0.07893400  1
  Sn  Sn9  1  0.72976500  0.50000000  0.57893400  1
  Ge  Ge10  1  0.73166200  0.00000000  0.92164700  1
  Ge  Ge11  1  0.26833800  0.00000000  0.42164700  1
  F  F12  1  0.99486600  0.00000000  0.96992200  1
  F  F13  1  0.98522500  0.50000000  0.02748100  1
  F  F14  1  0.01477500  0.50000000  0.52748100  1
  F  F15  1  0.00513400  0.00000000  0.46992200  1
  F  F16  1  0.18361100  0.00000000  0.26642000  1
  F  F17  1  0.82869300  0.50000000  0.74613000  1
  F  F18  1  0.17130700  0.50000000  0.24613000  1
  F  F19  1  0.81638900  0.00000000  0.76642000  1
  F  F20  1  0.64800200  0.00000000  0.07844500  1
  F  F21  1  0.36238900  0.50000000  0.90873700  1
  F  F22  1  0.63761100  0.50000000  0.40873700  1
  F  F23  1  0.35199800  0.00000000  0.57844500  1
  F  F24  1  0.46477800  0.00000000  0.87762300  1
  F  F25  1  0.56171100  0.50000000  0.12432500  1
  F  F26  1  0.43828900  0.50000000  0.62432500  1
  F  F27  1  0.53522200  0.00000000  0.37762300  1
  F  F28  1  0.73340700  0.21177300  0.92209500  1
  F  F29  1  0.26519700  0.73119800  0.07837000  1
  F  F30  1  0.73480300  0.26880200  0.57837000  1
  F  F31  1  0.26659300  0.78822700  0.42209500  1
  F  F32  1  0.26519700  0.26880200  0.07837000  1
  F  F33  1  0.73340700  0.78822700  0.92209500  1
  F  F34  1  0.26659300  0.21177300  0.42209500  1
  F  F35  1  0.73480300  0.73119800  0.57837000  1
