# generated using pymatgen
data_H10SO8
_symmetry_space_group_name_H-M   'P 1'
_cell_length_a   7.48400000
_cell_length_b   7.48400000
_cell_length_c   6.34900000
_cell_angle_alpha   90.00000000
_cell_angle_beta   90.00000000
_cell_angle_gamma   90.00000000
_symmetry_Int_Tables_number   1
_chemical_formula_structural   H10SO8
_chemical_formula_sum   'H20 S2 O16'
_cell_volume   355.60911534
_cell_formula_units_Z   2
loop_
 _symmetry_equiv_pos_site_id
 _symmetry_equiv_pos_as_xyz
  1  'x, y, z'
loop_
 _atom_site_type_symbol
 _atom_site_label
 _atom_site_symmetry_multiplicity
 _atom_site_fract_x
 _atom_site_fract_y
 _atom_site_fract_z
 _atom_site_occupancy
  H  H0  1  0.50000000  0.00000000  0.08000000  1.0
  H  H1  1  0.00000000  0.50000000  0.92000000  1.0
  H  H2  1  0.00000000  0.50000000  0.42000000  1.0
  H  H3  1  0.50000000  0.00000000  0.58000000  1.0
  H  H4  1  0.30550000  0.85470000  0.10010000  1.0
  H  H5  1  0.69450000  0.14530000  0.10010000  1.0
  H  H6  1  0.14530000  0.30550000  0.89990000  1.0
  H  H7  1  0.85470000  0.69450000  0.89990000  1.0
  H  H8  1  0.35470000  0.80550000  0.60010000  1.0
  H  H9  1  0.80550000  0.64530000  0.39990000  1.0
  H  H10  1  0.19450000  0.35470000  0.39990000  1.0
  H  H11  1  0.64530000  0.19450000  0.60010000  1.0
  H  H12  1  0.49700000  0.76750000  0.19020000  1.0
  H  H13  1  0.50300000  0.23250000  0.19020000  1.0
  H  H14  1  0.23250000  0.49700000  0.80980000  1.0
  H  H15  1  0.76750000  0.50300000  0.80980000  1.0
  H  H16  1  0.26750000  0.99700000  0.69020000  1.0
  H  H17  1  0.99700000  0.73250000  0.30980000  1.0
  H  H18  1  0.73250000  0.00300000  0.69020000  1.0
  H  H19  1  0.00300000  0.26750000  0.30980000  1.0
  S  S20  1  0.50000000  0.50000000  0.50000000  1.0
  S  S21  1  0.00000000  0.00000000  0.00000000  1.0
  O  O22  1  0.44018000  0.84901000  0.08014000  1.0
  O  O23  1  0.55982000  0.15099000  0.08014000  1.0
  O  O24  1  0.15099000  0.44018000  0.91986000  1.0
  O  O25  1  0.84901000  0.55982000  0.91986000  1.0
  O  O26  1  0.34901000  0.94018000  0.58014000  1.0
  O  O27  1  0.94018000  0.65099000  0.41986000  1.0
  O  O28  1  0.05982000  0.34901000  0.41986000  1.0
  O  O29  1  0.65099000  0.05982000  0.58014000  1.0
  O  O30  1  0.36384000  0.58858000  0.63262000  1.0
  O  O31  1  0.63616000  0.41142000  0.63262000  1.0
  O  O32  1  0.41142000  0.36384000  0.36738000  1.0
  O  O33  1  0.58858000  0.63616000  0.36738000  1.0
  O  O34  1  0.08858000  0.86384000  0.13262000  1.0
  O  O35  1  0.86384000  0.91142000  0.86738000  1.0
  O  O36  1  0.13616000  0.08858000  0.86738000  1.0
  O  O37  1  0.91142000  0.13616000  0.13262000  1.0
