# generated using pymatgen
data_MgZn3S4
_symmetry_space_group_name_H-M   'P 1'
_cell_length_a   6.31228017
_cell_length_b   3.85446654
_cell_length_c   6.69321852
_cell_angle_alpha   90.00000000
_cell_angle_beta   90.04512271
_cell_angle_gamma   90.00000000
_symmetry_Int_Tables_number   1
_chemical_formula_structural   MgZn3S4
_chemical_formula_sum   'Mg1 Zn3 S4'
_cell_volume   162.84911990
_cell_formula_units_Z   1
loop_
 _symmetry_equiv_pos_site_id
 _symmetry_equiv_pos_as_xyz
  1  'x, y, z'
loop_
 _atom_site_type_symbol
 _atom_site_label
 _atom_site_symmetry_multiplicity
 _atom_site_fract_x
 _atom_site_fract_y
 _atom_site_fract_z
 _atom_site_occupancy
  Mg  Mg0  1  0.49963359  0.00000000  0.33346099  1
  Zn  Zn1  1  0.50042031  0.50000000  0.83328654  1
  Zn  Zn2  1  0.00073414  0.50000000  0.16347546  1
  Zn  Zn3  1  0.00131500  0.00000000  0.67020412  1
  S  S4  1  0.88695921  0.00000000  0.33458206  1
  S  S5  1  0.87294057  0.50000000  0.83257001  1
  S  S6  1  0.36967744  0.50000000  0.15652868  1
  S  S7  1  0.37232074  0.00000000  0.67589115  1
