# generated using pymatgen
data_Li2SnGeS4
_symmetry_space_group_name_H-M   'P 1'
_cell_length_a   5.88859501
_cell_length_b   6.01003219
_cell_length_c   6.01003219
_cell_angle_alpha   99.26356993
_cell_angle_beta   114.10742329
_cell_angle_gamma   114.10742329
_symmetry_Int_Tables_number   1
_chemical_formula_structural   Li2SnGeS4
_chemical_formula_sum   'Li2 Sn1 Ge1 S4'
_cell_volume   162.92160008
_cell_formula_units_Z   1
loop_
 _symmetry_equiv_pos_site_id
 _symmetry_equiv_pos_as_xyz
  1  'x, y, z'
loop_
 _atom_site_type_symbol
 _atom_site_label
 _atom_site_symmetry_multiplicity
 _atom_site_fract_x
 _atom_site_fract_y
 _atom_site_fract_z
 _atom_site_occupancy
  Ge  Ge0  1  0.01420022  0.50665080  0.50665080  1
  Li  Li1  1  0.49296950  0.74588821  0.24269696  1
  Li  Li2  1  0.49296950  0.24269696  0.74588821  1
  S  S3  1  0.42495661  0.85903334  0.85903334  1
  S  S4  1  0.98834937  0.53759605  0.13636503  1
  S  S5  1  0.98834937  0.13636503  0.53759605  1
  S  S6  1  0.63948982  0.51117467  0.51117467  1
  Sn  Sn7  1  0.95871361  0.96059393  0.96059393  1
