# generated using pymatgen
data_Nb4AgBi5O18
_symmetry_space_group_name_H-M   'P 1'
_cell_length_a   5.57027800
_cell_length_b   5.60818359
_cell_length_c   12.93699770
_cell_angle_alpha   89.83000878
_cell_angle_beta   77.56776340
_cell_angle_gamma   89.21036530
_symmetry_Int_Tables_number   1
_chemical_formula_structural   Nb4AgBi5O18
_chemical_formula_sum   'Nb4 Ag1 Bi5 O18'
_cell_volume   394.62665236
_cell_formula_units_Z   1
loop_
 _symmetry_equiv_pos_site_id
 _symmetry_equiv_pos_as_xyz
  1  'x, y, z'
loop_
 _atom_site_type_symbol
 _atom_site_label
 _atom_site_symmetry_multiplicity
 _atom_site_fract_x
 _atom_site_fract_y
 _atom_site_fract_z
 _atom_site_occupancy
  Ag  Ag0  1  0.75871300  0.47122300  0.00000000  1
  Bi  Bi1  1  0.27485500  0.01024400  0.00000000  1
  Bi  Bi2  1  0.58080900  0.50976300  0.40027900  1
  Bi  Bi3  1  0.98108800  0.50976300  0.59972100  1
  Bi  Bi4  1  0.41769100  0.01004500  0.60017500  1
  Bi  Bi5  1  0.01786600  0.01004500  0.39982500  1
  Nb  Nb6  1  0.17382900  0.46515300  0.17079000  1
  Nb  Nb7  1  0.34461900  0.46515300  0.82921000  1
  Nb  Nb8  1  0.83974100  0.95889900  0.83151400  1
  Nb  Nb9  1  0.67125500  0.95889900  0.16848600  1
  O  O10  1  0.88971100  0.21951200  0.13541600  1
  O  O11  1  0.02512700  0.21951200  0.86458400  1
  O  O12  1  0.11180600  0.72770600  0.86337200  1
  O  O13  1  0.97517800  0.72770600  0.13662800  1
  O  O14  1  0.31036500  0.40591700  0.00000000  1
  O  O15  1  0.67103600  0.91691800  0.00000000  1
  O  O16  1  0.35457400  0.13013700  0.17200800  1
  O  O17  1  0.52658200  0.13013700  0.82799200  1
  O  O18  1  0.63655400  0.63886000  0.81697900  1
  O  O19  1  0.45353300  0.63886000  0.18302100  1
  O  O20  1  0.24096700  0.23389400  0.49559300  1
  O  O21  1  0.73656000  0.23389400  0.50440700  1
  O  O22  1  0.75802000  0.73452700  0.50249800  1
  O  O23  1  0.26051800  0.73452700  0.49750200  1
  O  O24  1  0.01844800  0.42524700  0.31600600  1
  O  O25  1  0.33445400  0.42524700  0.68399400  1
  O  O26  1  0.97607800  0.93510600  0.68394600  1
  O  O27  1  0.66002400  0.93510600  0.31605400  1
