# generated using pymatgen
data_TaCu3TeSe2S
_symmetry_space_group_name_H-M   'P 1'
_cell_length_a   5.76318136
_cell_length_b   5.76318136
_cell_length_c   5.76645139
_cell_angle_alpha   91.15296760
_cell_angle_beta   91.15296760
_cell_angle_gamma   90.11682750
_symmetry_Int_Tables_number   1
_chemical_formula_structural   TaCu3TeSe2S
_chemical_formula_sum   'Ta1 Cu3 Te1 Se2 S1'
_cell_volume   191.45029343
_cell_formula_units_Z   1
loop_
 _symmetry_equiv_pos_site_id
 _symmetry_equiv_pos_as_xyz
  1  'x, y, z'
loop_
 _atom_site_type_symbol
 _atom_site_label
 _atom_site_symmetry_multiplicity
 _atom_site_fract_x
 _atom_site_fract_y
 _atom_site_fract_z
 _atom_site_occupancy
  Cu  Cu0  1  0.01210300  0.01210300  0.50149600  1
  Cu  Cu1  1  0.01206600  0.49503100  0.00049500  1
  Cu  Cu2  1  0.49503100  0.01206600  0.00049500  1
  S  S3  1  0.23434200  0.23434200  0.77278000  1
  Se  Se4  1  0.25169700  0.75901900  0.24766600  1
  Se  Se5  1  0.75901900  0.25169700  0.24766600  1
  Ta  Ta6  1  0.00283200  0.00283200  0.00065100  1
  Te  Te7  1  0.73291100  0.73291100  0.72875300  1
