# generated using pymatgen
data_SrAl3P2(HO2)7
_symmetry_space_group_name_H-M   'P 1'
_cell_length_a   6.63372536
_cell_length_b   6.63372536
_cell_length_c   6.63372536
_cell_angle_alpha   64.99003064
_cell_angle_beta   64.99003064
_cell_angle_gamma   64.99003064
_symmetry_Int_Tables_number   1
_chemical_formula_structural   SrAl3P2(HO2)7
_chemical_formula_sum   'Sr1 Al3 P2 H7 O14'
_cell_volume   228.91803620
_cell_formula_units_Z   1
loop_
 _symmetry_equiv_pos_site_id
 _symmetry_equiv_pos_as_xyz
  1  'x, y, z'
loop_
 _atom_site_type_symbol
 _atom_site_label
 _atom_site_symmetry_multiplicity
 _atom_site_fract_x
 _atom_site_fract_y
 _atom_site_fract_z
 _atom_site_occupancy
  Al  Al0  1  0.50242533  0.99813903  0.99813903  1
  Al  Al1  1  0.99813903  0.50242533  0.99813903  1
  Al  Al2  1  0.99813903  0.99813903  0.50242533  1
  H  H3  1  0.28640928  0.69327495  0.69327495  1
  H  H4  1  0.69327495  0.28640928  0.69327495  1
  H  H5  1  0.29417043  0.29417043  0.72393940  1
  H  H6  1  0.69327495  0.69327495  0.28640928  1
  H  H7  1  0.47894882  0.47894882  0.47894882  1
  H  H8  1  0.72393940  0.29417043  0.29417043  1
  H  H9  1  0.29417043  0.72393940  0.29417043  1
  O  O10  1  0.48076107  0.83598390  0.83598390  1
  O  O11  1  0.83598390  0.48076107  0.83598390  1
  O  O12  1  0.83598390  0.83598390  0.48076107  1
  O  O13  1  0.58485234  0.58485234  0.58485234  1
  O  O14  1  0.74052663  0.11249558  0.74052663  1
  O  O15  1  0.11249558  0.74052663  0.74052663  1
  O  O16  1  0.25848461  0.25848461  0.89273052  1
  O  O17  1  0.74052663  0.74052663  0.11249558  1
  O  O18  1  0.89273052  0.25848461  0.25848461  1
  O  O19  1  0.25848461  0.89273052  0.25848461  1
  O  O20  1  0.41338094  0.41338094  0.41338094  1
  O  O21  1  0.16464301  0.16464301  0.52052181  1
  O  O22  1  0.52052181  0.16464301  0.16464301  1
  O  O23  1  0.16464301  0.52052181  0.16464301  1
  P  P24  1  0.68480993  0.68480993  0.68480993  1
  P  P25  1  0.31150074  0.31150074  0.31150074  1
  Sr  Sr26  1  0.99978415  0.99978415  0.99978415  1
