# generated using pymatgen
data_Al2O3
_symmetry_space_group_name_H-M   'P 1'
_cell_length_a   4.84350000
_cell_length_b   8.22240000
_cell_length_c   9.00110000
_cell_angle_alpha   90.00000000
_cell_angle_beta   90.00000000
_cell_angle_gamma   90.00000000
_symmetry_Int_Tables_number   1
_chemical_formula_structural   Al2O3
_chemical_formula_sum   'Al16 O24'
_cell_volume   358.47055731
_cell_formula_units_Z   8
loop_
 _symmetry_equiv_pos_site_id
 _symmetry_equiv_pos_as_xyz
  1  'x, y, z'
loop_
 _atom_site_type_symbol
 _atom_site_label
 _atom_site_symmetry_multiplicity
 _atom_site_fract_x
 _atom_site_fract_y
 _atom_site_fract_z
 _atom_site_occupancy
  Al  Al0  1  0.67800000  0.13950000  0.19700000  1.0
  Al  Al1  1  0.82200000  0.63950000  0.69700000  1.0
  Al  Al2  1  0.67110000  0.83400000  0.00120000  1.0
  Al  Al3  1  0.82890000  0.33400000  0.50120000  1.0
  Al  Al4  1  0.32890000  0.16600000  0.50120000  1.0
  Al  Al5  1  0.16210000  0.04480000  0.98850000  1.0
  Al  Al6  1  0.67550000  0.16000000  0.78840000  1.0
  Al  Al7  1  0.17550000  0.34000000  0.78840000  1.0
  Al  Al8  1  0.32450000  0.84000000  0.28840000  1.0
  Al  Al9  1  0.83790000  0.95520000  0.48850000  1.0
  Al  Al10  1  0.66210000  0.45520000  0.98850000  1.0
  Al  Al11  1  0.17800000  0.36050000  0.19700000  1.0
  Al  Al12  1  0.32200000  0.86050000  0.69700000  1.0
  Al  Al13  1  0.82450000  0.66000000  0.28840000  1.0
  Al  Al14  1  0.33790000  0.54480000  0.48850000  1.0
  Al  Al15  1  0.17110000  0.66600000  0.00120000  1.0
  O  O16  1  0.96890000  0.50450000  0.13220000  1.0
  O  O17  1  0.33100000  0.83720000  0.89990000  1.0
  O  O18  1  0.02030000  0.82110000  0.13080000  1.0
  O  O19  1  0.48000000  0.66780000  0.64510000  1.0
  O  O20  1  0.83100000  0.66280000  0.89990000  1.0
  O  O21  1  0.36130000  0.17850000  0.86150000  1.0
  O  O22  1  0.97970000  0.17890000  0.63080000  1.0
  O  O23  1  0.16900000  0.33720000  0.39990000  1.0
  O  O24  1  0.98000000  0.83220000  0.64510000  1.0
  O  O25  1  0.52030000  0.67890000  0.13080000  1.0
  O  O26  1  0.53110000  0.00450000  0.63220000  1.0
  O  O27  1  0.66900000  0.16280000  0.39990000  1.0
  O  O28  1  0.66240000  0.50660000  0.50150000  1.0
  O  O29  1  0.52000000  0.33220000  0.14510000  1.0
  O  O30  1  0.02000000  0.16780000  0.14510000  1.0
  O  O31  1  0.03110000  0.49550000  0.63220000  1.0
  O  O32  1  0.16240000  0.99340000  0.50150000  1.0
  O  O33  1  0.13870000  0.67850000  0.36150000  1.0
  O  O34  1  0.47970000  0.32110000  0.63080000  1.0
  O  O35  1  0.63870000  0.82150000  0.36150000  1.0
  O  O36  1  0.46890000  0.99550000  0.13220000  1.0
  O  O37  1  0.83760000  0.00660000  0.00150000  1.0
  O  O38  1  0.33760000  0.49340000  0.00150000  1.0
  O  O39  1  0.86130000  0.32150000  0.86150000  1.0
