# generated using pymatgen
data_SeIBr
_symmetry_space_group_name_H-M   'P 1'
_cell_length_a   5.61814351
_cell_length_b   6.45895398
_cell_length_c   7.42142439
_cell_angle_alpha   73.31838005
_cell_angle_beta   80.86560234
_cell_angle_gamma   82.80789208
_symmetry_Int_Tables_number   1
_chemical_formula_structural   SeIBr
_chemical_formula_sum   'Se2 I2 Br2'
_cell_volume   253.79422514
_cell_formula_units_Z   2
loop_
 _symmetry_equiv_pos_site_id
 _symmetry_equiv_pos_as_xyz
  1  'x, y, z'
loop_
 _atom_site_type_symbol
 _atom_site_label
 _atom_site_symmetry_multiplicity
 _atom_site_fract_x
 _atom_site_fract_y
 _atom_site_fract_z
 _atom_site_occupancy
  Se  Se0  1  0.11874434  0.97737320  0.45911072  1
  Se  Se1  1  0.29208864  0.30868926  0.44405787  1
  I  I2  1  0.90013530  0.52472555  0.56443915  1
  I  I3  1  0.34622777  0.53439126  0.08793457  1
  Br  Br4  1  0.82435625  0.14352590  0.24814436  1
  Br  Br5  1  0.46912671  0.79036083  0.70346533  1
