# generated using pymatgen
data_GePdS
_symmetry_space_group_name_H-M   'P 1'
_cell_length_a   5.82176211
_cell_length_b   5.85295612
_cell_length_c   5.89470327
_cell_angle_alpha   90.00000000
_cell_angle_beta   90.00000000
_cell_angle_gamma   90.00000000
_symmetry_Int_Tables_number   1
_chemical_formula_structural   GePdS
_chemical_formula_sum   'Ge4 Pd4 S4'
_cell_volume   200.85917369
_cell_formula_units_Z   4
loop_
 _symmetry_equiv_pos_site_id
 _symmetry_equiv_pos_as_xyz
  1  'x, y, z'
loop_
 _atom_site_type_symbol
 _atom_site_label
 _atom_site_symmetry_multiplicity
 _atom_site_fract_x
 _atom_site_fract_y
 _atom_site_fract_z
 _atom_site_occupancy
  Ge  Ge0  1  0.88721683  0.88812749  0.36823764  1
  Ge  Ge1  1  0.88721683  0.38812749  0.63176236  1
  Ge  Ge2  1  0.38721683  0.61187251  0.36823764  1
  Ge  Ge3  1  0.38721683  0.11187251  0.63176236  1
  Pd  Pd4  1  0.99836372  0.50094346  0.24493157  1
  Pd  Pd5  1  0.49836372  0.49905654  0.75506843  1
  Pd  Pd6  1  0.49836372  0.99905654  0.24493157  1
  Pd  Pd7  1  0.99836372  0.00094346  0.75506843  1
  S  S8  1  0.11251944  0.61639965  0.86306939  1
  S  S9  1  0.11251944  0.11639965  0.13693061  1
  S  S10  1  0.61251944  0.88360035  0.86306939  1
  S  S11  1  0.61251944  0.38360035  0.13693061  1
