# generated using pymatgen
data_CsH3O2
_symmetry_space_group_name_H-M   'P 1'
_cell_length_a   4.42520097
_cell_length_b   4.25023165
_cell_length_c   4.59119314
_cell_angle_alpha   90.00000000
_cell_angle_beta   118.79308370
_cell_angle_gamma   90.00000000
_symmetry_Int_Tables_number   1
_chemical_formula_structural   CsH3O2
_chemical_formula_sum   'Cs1 H3 O2'
_cell_volume   75.67563999
_cell_formula_units_Z   1
loop_
 _symmetry_equiv_pos_site_id
 _symmetry_equiv_pos_as_xyz
  1  'x, y, z'
loop_
 _atom_site_type_symbol
 _atom_site_label
 _atom_site_symmetry_multiplicity
 _atom_site_fract_x
 _atom_site_fract_y
 _atom_site_fract_z
 _atom_site_occupancy
  Cs  Cs0  1  0.01475117  0.00000000  0.02942011  1
  H  H1  1  0.44152655  0.50000000  0.88313629  1
  H  H2  1  0.92890530  0.50000000  0.47620457  1
  H  H3  1  0.54717685  0.50000000  0.47618987  1
  O  O4  1  0.32044634  0.50000000  0.64106495  1
  O  O5  1  0.66602479  0.50000000  0.33196021  1
