# generated using pymatgen
data_Sr5B3ClO9
_symmetry_space_group_name_H-M   'P 1'
_cell_length_a   7.42100000
_cell_length_b   8.68471089
_cell_length_c   8.68471089
_cell_angle_alpha   109.69924441
_cell_angle_beta   90.00000000
_cell_angle_gamma   90.00000000
_symmetry_Int_Tables_number   1
_chemical_formula_structural   Sr5B3ClO9
_chemical_formula_sum   'Sr10 B6 Cl2 O18'
_cell_volume   526.96521748
_cell_formula_units_Z   2
loop_
 _symmetry_equiv_pos_site_id
 _symmetry_equiv_pos_as_xyz
  1  'x, y, z'
loop_
 _atom_site_type_symbol
 _atom_site_label
 _atom_site_symmetry_multiplicity
 _atom_site_fract_x
 _atom_site_fract_y
 _atom_site_fract_z
 _atom_site_occupancy
  Sr  Sr26  1  0.00000000  0.23950000  0.23950000  1.0
  Sr  Sr27  1  0.06290000  0.99585000  0.73875000  1.0
  Sr  Sr28  1  0.50000000  0.76050000  0.76050000  1.0
  Sr  Sr29  1  0.25000000  0.63490000  0.36510000  1.0
  Sr  Sr30  1  0.75000000  0.36510000  0.63490000  1.0
  Sr  Sr31  1  0.25000000  0.36150000  0.63850000  1.0
  Sr  Sr32  1  0.56290000  0.00415000  0.26125000  1.0
  Sr  Sr33  1  0.75000000  0.63850000  0.36150000  1.0
  Sr  Sr34  1  0.43710000  0.26125000  0.00415000  1.0
  Sr  Sr35  1  0.93710000  0.73875000  0.99585000  1.0
  B  B0  1  0.53100000  0.59100000  0.01300000  1.0
  B  B1  1  0.96900000  0.98700000  0.40900000  1.0
  B  B2  1  0.00000000  0.62600000  0.62600000  1.0
  B  B3  1  0.46900000  0.01300000  0.59100000  1.0
  B  B4  1  0.50000000  0.37400000  0.37400000  1.0
  B  B5  1  0.03100000  0.40900000  0.98700000  1.0
  Cl  Cl6  1  0.25000000  0.94680000  0.05320000  1.0
  Cl  Cl7  1  0.75000000  0.05320000  0.94680000  1.0
  O  O8  1  0.50000000  0.50800000  0.50800000  1.0
  O  O9  1  0.51400000  0.15600000  0.55460000  1.0
  O  O10  1  0.00000000  0.49200000  0.49200000  1.0
  O  O11  1  0.83700000  0.69640000  0.69740000  1.0
  O  O12  1  0.48600000  0.55460000  0.15600000  1.0
  O  O13  1  0.11700000  0.26550000  0.97110000  1.0
  O  O14  1  0.61700000  0.73450000  0.02890000  1.0
  O  O15  1  0.33700000  0.30360000  0.30260000  1.0
  O  O16  1  0.16300000  0.69740000  0.69640000  1.0
  O  O17  1  0.98600000  0.44540000  0.84400000  1.0
  O  O18  1  0.50900000  0.86230000  0.48010000  1.0
  O  O19  1  0.88300000  0.97110000  0.26550000  1.0
  O  O20  1  0.66300000  0.30260000  0.30360000  1.0
  O  O21  1  0.00900000  0.13770000  0.51990000  1.0
  O  O22  1  0.01400000  0.84400000  0.44540000  1.0
  O  O23  1  0.99100000  0.51990000  0.13770000  1.0
  O  O24  1  0.38300000  0.02890000  0.73450000  1.0
  O  O25  1  0.49100000  0.48010000  0.86230000  1.0
