# generated using pymatgen
data_Y2TeO6
_symmetry_space_group_name_H-M   'P 1'
_cell_length_a   5.24560000
_cell_length_b   9.03610000
_cell_length_c   9.93120000
_cell_angle_alpha   90.00000000
_cell_angle_beta   90.00000000
_cell_angle_gamma   90.00000000
_symmetry_Int_Tables_number   1
_chemical_formula_structural   Y2TeO6
_chemical_formula_sum   'Y8 Te4 O24'
_cell_volume   470.73655769
_cell_formula_units_Z   4
loop_
 _symmetry_equiv_pos_site_id
 _symmetry_equiv_pos_as_xyz
  1  'x, y, z'
loop_
 _atom_site_type_symbol
 _atom_site_label
 _atom_site_symmetry_multiplicity
 _atom_site_fract_x
 _atom_site_fract_y
 _atom_site_fract_z
 _atom_site_occupancy
  Y  Y0  1  0.96365000  0.78264000  0.36412000  1.0
  Y  Y1  1  0.46365000  0.71736000  0.63588000  1.0
  Y  Y2  1  0.03635000  0.28264000  0.13588000  1.0
  Y  Y3  1  0.53635000  0.21736000  0.86412000  1.0
  Y  Y4  1  0.52011000  0.10387000  0.46119000  1.0
  Y  Y5  1  0.02011000  0.39613000  0.53881000  1.0
  Y  Y6  1  0.47989000  0.60387000  0.03881000  1.0
  Y  Y7  1  0.97989000  0.89613000  0.96119000  1.0
  Te  Te8  1  0.46169000  0.99489000  0.14760000  1.0
  Te  Te9  1  0.96169000  0.50511000  0.85240000  1.0
  Te  Te10  1  0.53831000  0.49489000  0.35240000  1.0
  Te  Te11  1  0.03831000  0.00511000  0.64760000  1.0
  O  O12  1  0.75860000  0.41470000  0.99500000  1.0
  O  O13  1  0.25860000  0.08530000  0.00500000  1.0
  O  O14  1  0.24140000  0.91470000  0.50500000  1.0
  O  O15  1  0.74140000  0.58530000  0.49500000  1.0
  O  O16  1  0.73170000  0.11350000  0.06970000  1.0
  O  O17  1  0.23170000  0.38650000  0.93030000  1.0
  O  O18  1  0.26830000  0.61350000  0.43030000  1.0
  O  O19  1  0.76830000  0.88650000  0.56970000  1.0
  O  O20  1  0.81580000  0.36020000  0.32160000  1.0
  O  O21  1  0.31580000  0.13980000  0.67840000  1.0
  O  O22  1  0.18420000  0.86020000  0.17840000  1.0
  O  O23  1  0.68420000  0.63980000  0.82160000  1.0
  O  O24  1  0.66770000  0.94820000  0.29820000  1.0
  O  O25  1  0.16770000  0.55180000  0.70180000  1.0
  O  O26  1  0.33230000  0.44820000  0.20180000  1.0
  O  O27  1  0.83230000  0.05180000  0.79820000  1.0
  O  O28  1  0.68920000  0.64000000  0.23900000  1.0
  O  O29  1  0.18920000  0.86000000  0.76100000  1.0
  O  O30  1  0.31080000  0.14000000  0.26100000  1.0
  O  O31  1  0.81080000  0.36000000  0.73900000  1.0
  O  O32  1  0.58690000  0.84570000  0.02870000  1.0
  O  O33  1  0.08690000  0.65430000  0.97130000  1.0
  O  O34  1  0.41310000  0.34570000  0.47130000  1.0
  O  O35  1  0.91310000  0.15430000  0.52870000  1.0
