# generated using pymatgen
data_K2SnHOF6
_symmetry_space_group_name_H-M   'P 1'
_cell_length_a   9.34736477
_cell_length_b   9.34736477
_cell_length_c   10.92864782
_cell_angle_alpha   112.27518296
_cell_angle_beta   112.27518296
_cell_angle_gamma   96.52521778
_symmetry_Int_Tables_number   1
_chemical_formula_structural   K2SnHOF6
_chemical_formula_sum   'K8 Sn4 H4 O4 F24'
_cell_volume   779.88108687
_cell_formula_units_Z   4
loop_
 _symmetry_equiv_pos_site_id
 _symmetry_equiv_pos_as_xyz
  1  'x, y, z'
loop_
 _atom_site_type_symbol
 _atom_site_label
 _atom_site_symmetry_multiplicity
 _atom_site_fract_x
 _atom_site_fract_y
 _atom_site_fract_z
 _atom_site_occupancy
  F  F0  1  0.03136000  0.45603700  0.78295300  1
  F  F1  1  0.67308400  0.24840700  0.21704700  1
  F  F2  1  0.30398600  0.71834000  0.22595400  1
  F  F3  1  0.49238600  0.07803200  0.77404600  1
  F  F4  1  0.96834000  0.05398600  0.72595400  1
  F  F5  1  0.32803200  0.24238600  0.27404600  1
  F  F6  1  0.70603700  0.78136000  0.28295300  1
  F  F7  1  0.49840700  0.42308400  0.71704700  1
  F  F8  1  0.95332200  0.59134100  0.01910700  1
  F  F9  1  0.57223400  0.93421500  0.98089300  1
  F  F10  1  0.17961500  0.81210400  0.00801600  1
  F  F11  1  0.80408800  0.17159900  0.99198400  1
  F  F12  1  0.06210400  0.92961500  0.50801600  1
  F  F13  1  0.42159900  0.55408800  0.49198400  1
  F  F14  1  0.84134100  0.70332200  0.51910700  1
  F  F15  1  0.18421500  0.32223400  0.48089300  1
  F  F16  1  0.16433900  0.39035100  0.02478500  1
  F  F17  1  0.36556600  0.13955400  0.97521500  1
  F  F18  1  0.36241800  0.58487600  0.98022300  1
  F  F19  1  0.60465300  0.38219500  0.01977700  1
  F  F20  1  0.83487600  0.11241800  0.48022300  1
  F  F21  1  0.63219500  0.35465300  0.51977700  1
  F  F22  1  0.64035100  0.91433900  0.52478500  1
  F  F23  1  0.38955400  0.11556600  0.47521500  1
  H  H24  1  0.98897800  0.85406500  0.10187200  1
  H  H25  1  0.75219300  0.88710600  0.89812800  1
  H  H26  1  0.10406500  0.73897800  0.60187200  1
  H  H27  1  0.13710600  0.50219300  0.39812800  1
  K  K28  1  0.50326400  0.50070700  0.25099200  1
  K  K29  1  0.24971500  0.25227200  0.74900800  1
  K  K30  1  0.50227200  0.99971500  0.24900800  1
  K  K31  1  0.75070700  0.25326400  0.75099200  1
  K  K32  1  0.65548900  0.65548900  0.00000000  1
  K  K33  1  0.09268800  0.09268800  1.00000000  1
  K  K34  1  0.34268800  0.84268800  0.50000000  1
  K  K35  1  0.90548900  0.40548900  0.50000000  1
  O  O36  1  0.91399600  0.91820100  0.08253400  1
  O  O37  1  0.83566700  0.83146200  0.91746600  1
  O  O38  1  0.08146200  0.58566700  0.41746600  1
  O  O39  1  0.16820100  0.66399600  0.58253400  1
  Sn  Sn40  1  0.16045900  0.59491900  0.00442000  1
  Sn  Sn41  1  0.59049900  0.15603900  0.99558000  1
  Sn  Sn42  1  0.84491900  0.91045900  0.50442000  1
  Sn  Sn43  1  0.40603900  0.34049900  0.49558000  1
