# generated using pymatgen
data_PH11S(NO4)2
_symmetry_space_group_name_H-M   'P 1'
_cell_length_a   7.66316989
_cell_length_b   7.47640500
_cell_length_c   9.82681590
_cell_angle_alpha   90.00000000
_cell_angle_beta   127.77556117
_cell_angle_gamma   90.00000000
_symmetry_Int_Tables_number   1
_chemical_formula_structural   PH11S(NO4)2
_chemical_formula_sum   'P2 H22 S2 N4 O16'
_cell_volume   445.01025408
_cell_formula_units_Z   2
loop_
 _symmetry_equiv_pos_site_id
 _symmetry_equiv_pos_as_xyz
  1  'x, y, z'
loop_
 _atom_site_type_symbol
 _atom_site_label
 _atom_site_symmetry_multiplicity
 _atom_site_fract_x
 _atom_site_fract_y
 _atom_site_fract_z
 _atom_site_occupancy
  P  P0  1  0.15589900  0.93643900  0.75487800  1
  P  P1  1  0.15589900  0.06356100  0.25487800  1
  H  H2  1  0.03226800  0.24000800  0.02834500  1
  H  H3  1  0.26651900  0.50229500  0.22326500  1
  H  H4  1  0.49450300  0.54559900  0.42479500  1
  H  H5  1  0.36137400  0.71681800  0.28783800  1
  H  H6  1  0.50212200  0.05500900  0.24500300  1
  H  H7  1  0.50036300  0.56316600  0.25612000  1
  H  H8  1  0.90464800  0.16797900  0.62359100  1
  H  H9  1  0.10428000  0.71576400  0.88042500  1
  H  H10  1  0.64691600  0.21088200  0.22322100  1
  H  H11  1  0.50785400  0.05019100  0.07434500  1
  H  H12  1  0.73197800  0.99241500  0.27412500  1
  H  H13  1  0.03226800  0.75999200  0.52834500  1
  H  H14  1  0.26651900  0.49770500  0.72326500  1
  H  H15  1  0.49450300  0.45440100  0.92479500  1
  H  H16  1  0.36137400  0.28318200  0.78783800  1
  H  H17  1  0.90464800  0.83202100  0.12359100  1
  H  H18  1  0.10428000  0.28423600  0.38042500  1
  H  H19  1  0.50212200  0.94499100  0.74500300  1
  H  H20  1  0.50036300  0.43683400  0.75612000  1
  H  H21  1  0.64691600  0.78911800  0.72322100  1
  H  H22  1  0.50785400  0.94980900  0.57434500  1
  H  H23  1  0.73197800  0.00758500  0.77412500  1
  S  S24  1  0.85128900  0.42496900  0.75227900  1
  S  S25  1  0.85128900  0.57503100  0.25227900  1
  N  N26  1  0.40411300  0.58177300  0.29623100  1
  N  N27  1  0.59853800  0.07740000  0.20579800  1
  N  N28  1  0.40411300  0.41822700  0.79623100  1
  N  N29  1  0.59853800  0.92260000  0.70579800  1
  O  O30  1  0.17055500  0.21979100  0.15428200  1
  O  O31  1  0.35453000  0.94184200  0.33934900  1
  O  O32  1  0.06449200  0.51962300  0.87735600  1
  O  O33  1  0.84429000  0.35129600  0.60726700  1
  O  O34  1  0.15596100  0.84747600  0.90021000  1
  O  O35  1  0.92854400  0.02859000  0.62077500  1
  O  O36  1  0.65942000  0.45145600  0.17808600  1
  O  O37  1  0.83254300  0.72572700  0.34341400  1
  O  O38  1  0.17055500  0.78020900  0.65428200  1
  O  O39  1  0.35453000  0.05815800  0.83934900  1
  O  O40  1  0.06449200  0.48037700  0.37735600  1
  O  O41  1  0.84429000  0.64870400  0.10726700  1
  O  O42  1  0.15596100  0.15252400  0.40021000  1
  O  O43  1  0.92854400  0.97141000  0.12077500  1
  O  O44  1  0.65942000  0.54854400  0.67808600  1
  O  O45  1  0.83254300  0.27427300  0.84341400  1
