# generated using pymatgen
data_BaH2I
_symmetry_space_group_name_H-M   'P 1'
_cell_length_a   4.55393329
_cell_length_b   4.55393329
_cell_length_c   9.94624950
_cell_angle_alpha   102.52585900
_cell_angle_beta   102.52585900
_cell_angle_gamma   90.27943235
_symmetry_Int_Tables_number   1
_chemical_formula_structural   BaH2I
_chemical_formula_sum   'Ba2 H4 I2'
_cell_volume   196.27424772
_cell_formula_units_Z   2
loop_
 _symmetry_equiv_pos_site_id
 _symmetry_equiv_pos_as_xyz
  1  'x, y, z'
loop_
 _atom_site_type_symbol
 _atom_site_label
 _atom_site_symmetry_multiplicity
 _atom_site_fract_x
 _atom_site_fract_y
 _atom_site_fract_z
 _atom_site_occupancy
  Ba  Ba0  1  0.71171025  0.71171025  0.79112658  1
  Ba  Ba1  1  0.34666055  0.34666055  0.07423886  1
  H  H2  1  0.27905665  0.77919752  0.93253613  1
  H  H3  1  0.77919752  0.27905665  0.93253613  1
  H  H4  1  0.58312936  0.58312936  0.42434690  1
  H  H5  1  0.46561644  0.46561644  0.42852484  1
  I  I6  1  0.14217830  0.14217830  0.64503967  1
  I  I7  1  0.91585393  0.91585393  0.21951490  1
