# generated using pymatgen
data_Ti3(BiO3)4
_symmetry_space_group_name_H-M   'P 1'
_cell_length_a   5.42600000
_cell_length_b   5.43700000
_cell_length_c   16.56622368
_cell_angle_alpha   99.44489497
_cell_angle_beta   90.00000000
_cell_angle_gamma   90.00000000
_symmetry_Int_Tables_number   1
_chemical_formula_structural   Ti3(BiO3)4
_chemical_formula_sum   'Ti6 Bi8 O24'
_cell_volume   482.09766403
_cell_formula_units_Z   2
loop_
 _symmetry_equiv_pos_site_id
 _symmetry_equiv_pos_as_xyz
  1  'x, y, z'
loop_
 _atom_site_type_symbol
 _atom_site_label
 _atom_site_symmetry_multiplicity
 _atom_site_fract_x
 _atom_site_fract_y
 _atom_site_fract_z
 _atom_site_occupancy
  Ti  Ti32  1  0.50390000  0.91640000  0.74320000  1.0
  Ti  Ti33  1  0.49610000  0.17320000  0.25680000  1.0
  Ti  Ti34  1  0.99610000  0.41640000  0.74320000  1.0
  Ti  Ti35  1  0.00390000  0.67320000  0.25680000  1.0
  Ti  Ti36  1  0.50000000  0.03380000  0.00000000  1.0
  Ti  Ti37  1  0.00000000  0.53380000  0.00000000  1.0
  Bi  Bi0  1  0.01910000  0.78880000  0.57800000  1.0
  Bi  Bi1  1  0.98090000  0.21080000  0.42200000  1.0
  Bi  Bi2  1  0.48090000  0.28880000  0.57800000  1.0
  Bi  Bi3  1  0.51910000  0.71080000  0.42200000  1.0
  Bi  Bi4  1  0.00410000  0.93380000  0.86760000  1.0
  Bi  Bi5  1  0.99590000  0.06620000  0.13240000  1.0
  Bi  Bi6  1  0.49590000  0.43380000  0.86760000  1.0
  Bi  Bi7  1  0.50410000  0.56620000  0.13240000  1.0
  O  O8  1  0.69410000  0.23690000  0.74900000  1.0
  O  O9  1  0.30590000  0.48790000  0.25100000  1.0
  O  O10  1  0.80590000  0.73690000  0.74900000  1.0
  O  O11  1  0.19410000  0.98790000  0.25100000  1.0
  O  O12  1  0.21990000  0.17090000  0.77960000  1.0
  O  O13  1  0.78010000  0.39130000  0.22040000  1.0
  O  O14  1  0.28010000  0.67090000  0.77960000  1.0
  O  O15  1  0.71990000  0.89130000  0.22040000  1.0
  O  O16  1  0.44260000  0.86140000  0.63580000  1.0
  O  O17  1  0.55740000  0.22560000  0.36420000  1.0
  O  O18  1  0.05740000  0.36140000  0.63580000  1.0
  O  O19  1  0.94260000  0.72560000  0.36420000  1.0
  O  O20  1  0.57740000  0.01980000  0.88180000  1.0
  O  O21  1  0.42260000  0.13800000  0.11820000  1.0
  O  O22  1  0.75200000  0.81800000  0.02140000  1.0
  O  O23  1  0.24800000  0.79660000  0.97860000  1.0
  O  O24  1  0.74800000  0.31800000  0.02140000  1.0
  O  O25  1  0.25200000  0.29660000  0.97860000  1.0
  O  O26  1  0.75360000  0.51330000  0.50220000  1.0
  O  O27  1  0.24640000  0.01110000  0.49780000  1.0
  O  O28  1  0.74640000  0.01330000  0.50220000  1.0
  O  O29  1  0.25360000  0.51110000  0.49780000  1.0
  O  O30  1  0.07740000  0.63800000  0.11820000  1.0
  O  O31  1  0.92260000  0.51980000  0.88180000  1.0
