# generated using pymatgen
data_Al2Si2H4O9
_symmetry_space_group_name_H-M   'P 1'
_cell_length_a   5.21195213
_cell_length_b   5.21297900
_cell_length_c   7.47878339
_cell_angle_alpha   75.02544687
_cell_angle_beta   84.13758854
_cell_angle_gamma   60.26579668
_symmetry_Int_Tables_number   1
_chemical_formula_structural   Al2Si2H4O9
_chemical_formula_sum   'Al2 Si2 H4 O9'
_cell_volume   170.36932577
_cell_formula_units_Z   1
loop_
 _symmetry_equiv_pos_site_id
 _symmetry_equiv_pos_as_xyz
  1  'x, y, z'
loop_
 _atom_site_type_symbol
 _atom_site_label
 _atom_site_symmetry_multiplicity
 _atom_site_fract_x
 _atom_site_fract_y
 _atom_site_fract_z
 _atom_site_occupancy
  Al  Al0  1  0.98553900  0.14609700  0.45871500  1
  Al  Al1  1  0.65740000  0.81750300  0.45630500  1
  H  H2  1  0.11825000  0.74065950  0.30263150  1
  H  H3  1  0.33908700  0.71193950  0.71303800  1
  H  H4  1  0.00201000  0.39175000  0.71105450  1
  H  H5  1  0.63061700  0.07625050  0.71048050  1
  O  O6  1  0.70444800  0.53630200  0.29657700  1
  O  O7  1  0.32304800  0.15443100  0.29764200  1
  O  O8  1  0.99764800  0.43975700  0.97962400  1
  O  O9  1  0.46147400  0.49828850  0.00375750  1
  O  O10  1  0.52677100  0.97206950  0.97978900  1
  O  O11  1  0.93224900  0.92430000  0.30716550  1
  O  O12  1  0.32973600  0.81891400  0.58466400  1
  O  O13  1  0.93897700  0.43090100  0.58448650  1
  O  O14  1  0.71529800  0.04057050  0.59175600  1
  Si  Si15  1  0.67480200  0.60409600  0.07346650  1
  Si  Si16  1  0.33164700  0.26116950  0.07484950  1
