# generated using pymatgen
data_Rb2SnHgSe4
_symmetry_space_group_name_H-M   'P 1'
_cell_length_a   6.79060403
_cell_length_b   6.79060403
_cell_length_c   6.79060403
_cell_angle_alpha   105.59619000
_cell_angle_beta   105.59619000
_cell_angle_gamma   117.53487618
_symmetry_Int_Tables_number   1
_chemical_formula_structural   Rb2SnHgSe4
_chemical_formula_sum   'Rb2 Sn1 Hg1 Se4'
_cell_volume   237.42035720
_cell_formula_units_Z   1
loop_
 _symmetry_equiv_pos_site_id
 _symmetry_equiv_pos_as_xyz
  1  'x, y, z'
loop_
 _atom_site_type_symbol
 _atom_site_label
 _atom_site_symmetry_multiplicity
 _atom_site_fract_x
 _atom_site_fract_y
 _atom_site_fract_z
 _atom_site_occupancy
  Hg  Hg0  1  0.50000000  0.50000000  -0.00000000  1
  Rb  Rb1  1  -0.00000000  0.50000000  0.50000000  1
  Rb  Rb2  1  0.50000000  -0.00000000  0.50000000  1
  Se  Se3  1  0.06459778  0.40243459  0.00000000  1
  Se  Se4  1  0.40243459  0.06459778  -0.00000000  1
  Se  Se5  1  0.93540222  0.93540222  0.33783681  1
  Se  Se6  1  0.59756541  0.59756541  0.66216319  1
  Sn  Sn7  1  0.00000000  0.00000000  0.00000000  1
