# generated using pymatgen
data_TlB3O5
_symmetry_space_group_name_H-M   'P 1'
_cell_length_a   5.20990000
_cell_length_b   8.24800000
_cell_length_c   10.20600000
_cell_angle_alpha   90.00000000
_cell_angle_beta   90.00000000
_cell_angle_gamma   90.00000000
_symmetry_Int_Tables_number   1
_chemical_formula_structural   TlB3O5
_chemical_formula_sum   'Tl4 B12 O20'
_cell_volume   438.56463057
_cell_formula_units_Z   4
loop_
 _symmetry_equiv_pos_site_id
 _symmetry_equiv_pos_as_xyz
  1  'x, y, z'
loop_
 _atom_site_type_symbol
 _atom_site_label
 _atom_site_symmetry_multiplicity
 _atom_site_fract_x
 _atom_site_fract_y
 _atom_site_fract_z
 _atom_site_occupancy
  Tl  Tl0  1  0.47216000  0.72401000  0.62869000  1.0
  Tl  Tl1  1  0.97216000  0.77599000  0.37131000  1.0
  Tl  Tl2  1  0.52784000  0.22401000  0.87131000  1.0
  Tl  Tl3  1  0.02784000  0.27599000  0.12869000  1.0
  B  B4  1  0.10300000  0.34800000  0.64700000  1.0
  B  B5  1  0.60300000  0.15200000  0.35300000  1.0
  B  B6  1  0.89700000  0.84800000  0.85300000  1.0
  B  B7  1  0.39700000  0.65200000  0.14700000  1.0
  B  B8  1  0.69600000  0.61700000  0.95900000  1.0
  B  B9  1  0.19600000  0.88300000  0.04100000  1.0
  B  B10  1  0.96100000  0.06700000  0.69100000  1.0
  B  B11  1  0.46100000  0.43300000  0.30900000  1.0
  B  B12  1  0.03900000  0.56700000  0.80900000  1.0
  B  B13  1  0.53900000  0.93300000  0.19100000  1.0
  B  B14  1  0.30400000  0.11700000  0.54100000  1.0
  B  B15  1  0.80400000  0.38300000  0.45900000  1.0
  O  O16  1  0.31690000  0.27260000  0.58000000  1.0
  O  O17  1  0.85590000  0.50610000  0.89230000  1.0
  O  O18  1  0.64410000  0.49390000  0.39230000  1.0
  O  O19  1  0.35590000  0.99390000  0.10770000  1.0
  O  O20  1  0.56520000  0.77090000  0.21370000  1.0
  O  O21  1  0.06520000  0.72910000  0.78630000  1.0
  O  O22  1  0.43480000  0.27090000  0.28630000  1.0
  O  O23  1  0.93480000  0.22910000  0.71370000  1.0
  O  O24  1  0.29400000  0.53670000  0.24560000  1.0
  O  O25  1  0.79400000  0.96330000  0.75440000  1.0
  O  O26  1  0.70600000  0.03670000  0.25440000  1.0
  O  O27  1  0.20600000  0.46330000  0.74560000  1.0
  O  O28  1  0.68310000  0.77260000  0.92000000  1.0
  O  O29  1  0.18310000  0.72740000  0.08000000  1.0
  O  O30  1  0.94640000  0.44880000  0.55760000  1.0
  O  O31  1  0.44640000  0.05120000  0.44240000  1.0
  O  O32  1  0.05360000  0.94880000  0.94240000  1.0
  O  O33  1  0.55360000  0.55120000  0.05760000  1.0
  O  O34  1  0.14410000  0.00610000  0.60770000  1.0
  O  O35  1  0.81690000  0.22740000  0.42000000  1.0
