# generated using pymatgen
data_RbLiH4SeO5
_symmetry_space_group_name_H-M   'P 1'
_cell_length_a   4.50134816
_cell_length_b   5.80560560
_cell_length_c   6.42406841
_cell_angle_alpha   113.84121371
_cell_angle_beta   103.35711492
_cell_angle_gamma   88.92446402
_symmetry_Int_Tables_number   1
_chemical_formula_structural   RbLiH4SeO5
_chemical_formula_sum   'Rb1 Li1 H4 Se1 O5'
_cell_volume   148.87535359
_cell_formula_units_Z   1
loop_
 _symmetry_equiv_pos_site_id
 _symmetry_equiv_pos_as_xyz
  1  'x, y, z'
loop_
 _atom_site_type_symbol
 _atom_site_label
 _atom_site_symmetry_multiplicity
 _atom_site_fract_x
 _atom_site_fract_y
 _atom_site_fract_z
 _atom_site_occupancy
  Rb  Rb0  1  0.95094475  0.95071486  0.95839915  1
  Li  Li1  1  0.63386165  0.67845255  0.34930747  1
  H  H2  1  0.22543543  0.62607635  0.53538896  1
  H  H3  1  0.21608738  0.88910812  0.52936628  1
  H  H4  1  0.57247232  0.48935665  0.93445510  1
  H  H5  1  0.21206510  0.48204463  0.93689312  1
  Se  Se6  1  0.71917617  0.25010367  0.51202792  1
  O  O7  1  0.41965286  0.57496409  0.02842404  1
  O  O8  1  0.90144707  0.43889855  0.42508776  1
  O  O9  1  0.89940552  0.97715516  0.41993620  1
  O  O10  1  0.36985615  0.77769200  0.57620345  1
  O  O11  1  0.85577161  0.37445338  0.81254855  1
