# generated using pymatgen
data_Ca4YB3O10
_symmetry_space_group_name_H-M   'P 1'
_cell_length_a   3.56470286
_cell_length_b   8.13859000
_cell_length_c   9.02682915
_cell_angle_alpha   63.20497430
_cell_angle_beta   84.96786757
_cell_angle_gamma   78.78010362
_symmetry_Int_Tables_number   1
_chemical_formula_structural   Ca4YB3O10
_chemical_formula_sum   'Ca4 Y1 B3 O10'
_cell_volume   229.29575730
_cell_formula_units_Z   1
loop_
 _symmetry_equiv_pos_site_id
 _symmetry_equiv_pos_as_xyz
  1  'x, y, z'
loop_
 _atom_site_type_symbol
 _atom_site_label
 _atom_site_symmetry_multiplicity
 _atom_site_fract_x
 _atom_site_fract_y
 _atom_site_fract_z
 _atom_site_occupancy
  B  B0  1  0.09529000  0.82852400  0.00000000  1
  B  B1  1  0.47656400  0.05837200  0.38843100  1
  B  B2  1  0.47656400  0.44680300  0.61156900  1
  Ca  Ca3  1  0.72252800  0.67350700  0.77467400  1
  Ca  Ca4  1  0.72252800  0.44818100  0.22532600  1
  Ca  Ca5  1  0.05112800  0.12097100  0.63611300  1
  Ca  Ca6  1  0.05112800  0.75708400  0.36388700  1
  O  O7  1  0.47395600  0.97376100  0.28427300  1
  O  O8  1  0.47395600  0.25803400  0.71572700  1
  O  O9  1  0.81557100  0.37196300  0.00000000  1
  O  O10  1  0.14312100  0.81632400  0.85094500  1
  O  O11  1  0.14312100  0.66726900  0.14905500  1
  O  O12  1  0.00038000  0.00256900  0.00000000  1
  O  O13  1  0.67100000  0.96532500  0.53793900  1
  O  O14  1  0.67100000  0.50326400  0.46206100  1
  O  O15  1  0.27925200  0.23846000  0.34352000  1
  O  O16  1  0.27925200  0.58198000  0.65648000  1
  Y  Y17  1  0.39456100  0.20110900  1.00000000  1
