# generated using pymatgen
data_Ca5B3O9F
_symmetry_space_group_name_H-M   'P 1'
_cell_length_a   3.57233613
_cell_length_b   8.19807000
_cell_length_c   9.09264106
_cell_angle_alpha   63.20446612
_cell_angle_beta   85.18017002
_cell_angle_gamma   79.25825317
_symmetry_Int_Tables_number   1
_chemical_formula_structural   Ca5B3O9F
_chemical_formula_sum   'Ca5 B3 O9 F1'
_cell_volume   233.53048002
_cell_formula_units_Z   1
loop_
 _symmetry_equiv_pos_site_id
 _symmetry_equiv_pos_as_xyz
  1  'x, y, z'
loop_
 _atom_site_type_symbol
 _atom_site_label
 _atom_site_symmetry_multiplicity
 _atom_site_fract_x
 _atom_site_fract_y
 _atom_site_fract_z
 _atom_site_occupancy
  B  B0  1  0.59319000  0.31961100  0.60716600  1
  B  B1  1  0.96432400  0.55947900  0.00000000  1
  B  B2  1  0.59319000  0.92677700  0.39283400  1
  Ca  Ca3  1  0.00395400  0.26197900  0.35570500  1
  Ca  Ca4  1  0.34785200  0.93484300  0.76366500  1
  Ca  Ca5  1  0.34785200  0.69850800  0.23633500  1
  Ca  Ca6  1  0.00395400  0.61768400  0.64429500  1
  Ca  Ca7  1  0.63674500  0.20694300  0.00000000  1
  F  F8  1  0.24864500  0.00021400  0.00000000  1
  O  O9  1  0.05113600  0.38753100  0.00000000  1
  O  O10  1  0.57877400  0.40635700  0.70859300  1
  O  O11  1  0.92013300  0.71995200  0.85187800  1
  O  O12  1  0.79450600  0.14135300  0.65344700  1
  O  O13  1  0.92013300  0.57183000  0.14812200  1
  O  O14  1  0.79450600  0.79480000  0.34655300  1
  O  O15  1  0.40996700  0.40778100  0.45522700  1
  O  O16  1  0.40996700  0.86300800  0.54477300  1
  O  O17  1  0.57877400  0.11495000  0.29140700  1
