# generated using pymatgen
data_CsZnPO4
_symmetry_space_group_name_H-M   'P 1'
_cell_length_a   5.40448635
_cell_length_b   9.26948848
_cell_length_c   9.27260300
_cell_angle_alpha   90.00000000
_cell_angle_beta   90.00000000
_cell_angle_gamma   90.00000000
_symmetry_Int_Tables_number   1
_chemical_formula_structural   CsZnPO4
_chemical_formula_sum   'Cs4 Zn4 P4 O16'
_cell_volume   464.52796016
_cell_formula_units_Z   4
loop_
 _symmetry_equiv_pos_site_id
 _symmetry_equiv_pos_as_xyz
  1  'x, y, z'
loop_
 _atom_site_type_symbol
 _atom_site_label
 _atom_site_symmetry_multiplicity
 _atom_site_fract_x
 _atom_site_fract_y
 _atom_site_fract_z
 _atom_site_occupancy
  Cs  Cs0  1  0.23977524  0.20953617  0.00259251  1
  Cs  Cs1  1  0.73977524  0.70953617  0.49740749  1
  Cs  Cs2  1  0.73977524  0.79046383  0.99740749  1
  Cs  Cs3  1  0.23977524  0.29046383  0.50259251  1
  Zn  Zn4  1  0.74632892  0.08380722  0.32251442  1
  Zn  Zn5  1  0.24632892  0.58380722  0.17748558  1
  Zn  Zn6  1  0.74632892  0.41619278  0.82251442  1
  Zn  Zn7  1  0.24632892  0.91619278  0.67748558  1
  P  P8  1  0.24768526  0.58633674  0.80652330  1
  P  P9  1  0.74768526  0.41366326  0.19347670  1
  P  P10  1  0.24768526  0.91366326  0.30652330  1
  P  P11  1  0.74768526  0.08633674  0.69347670  1
  O  O12  1  0.41661723  0.46110393  0.75874234  1
  O  O13  1  0.91661723  0.96110393  0.74125766  1
  O  O14  1  0.34526729  0.77421033  0.23858635  1
  O  O15  1  0.41661723  0.03889607  0.25874234  1
  O  O16  1  0.98380751  0.55569736  0.75140091  1
  O  O17  1  0.84526729  0.27421033  0.26141365  1
  O  O18  1  0.48380751  0.44430264  0.24859909  1
  O  O19  1  0.98380751  0.94430264  0.25140091  1
  O  O20  1  0.74861955  0.39852922  0.02991962  1
  O  O21  1  0.91661723  0.53889607  0.24125766  1
  O  O22  1  0.24861955  0.89852922  0.47008038  1
  O  O23  1  0.24861955  0.60147078  0.97008038  1
  O  O24  1  0.74861955  0.10147078  0.52991962  1
  O  O25  1  0.84526729  0.22578967  0.76141365  1
  O  O26  1  0.34526729  0.72578967  0.73858635  1
  O  O27  1  0.48380751  0.05569736  0.74859909  1
