# generated using pymatgen
data_CdH6(NCl)2
_symmetry_space_group_name_H-M   'P 1'
_cell_length_a   4.05001288
_cell_length_b   6.00547763
_cell_length_c   6.00547763
_cell_angle_alpha   88.12746463
_cell_angle_beta   88.54946716
_cell_angle_gamma   88.54946716
_symmetry_Int_Tables_number   1
_chemical_formula_structural   CdH6(NCl)2
_chemical_formula_sum   'Cd1 H6 N2 Cl2'
_cell_volume   145.89818155
_cell_formula_units_Z   1
loop_
 _symmetry_equiv_pos_site_id
 _symmetry_equiv_pos_as_xyz
  1  'x, y, z'
loop_
 _atom_site_type_symbol
 _atom_site_label
 _atom_site_symmetry_multiplicity
 _atom_site_fract_x
 _atom_site_fract_y
 _atom_site_fract_z
 _atom_site_occupancy
  Cd  Cd0  1  0.00000000  0.00226200  0.99773800  1
  Cl  Cl1  1  0.50000000  0.77382600  0.22617400  1
  Cl  Cl2  1  0.50000000  0.22699700  0.77300300  1
  H  H3  1  0.79447600  0.39765400  0.19695100  1
  H  H4  1  0.20552400  0.80304900  0.60234600  1
  H  H5  1  0.18177500  0.36144200  0.26405800  1
  H  H6  1  0.10798700  0.59496600  0.77462800  1
  H  H7  1  0.81822500  0.73594200  0.63855800  1
  H  H8  1  0.89201300  0.22537200  0.40503400  1
  N  N9  1  0.03383400  0.75150100  0.72101100  1
  N  N10  1  0.96616600  0.27898900  0.24849900  1
