# generated using pymatgen
data_ClO2F
_symmetry_space_group_name_H-M   'P 1'
_cell_length_a   5.15878777
_cell_length_b   6.45673911
_cell_length_c   8.31547657
_cell_angle_alpha   90.00000000
_cell_angle_beta   90.00000000
_cell_angle_gamma   90.00000000
_symmetry_Int_Tables_number   1
_chemical_formula_structural   ClO2F
_chemical_formula_sum   'Cl4 O8 F4'
_cell_volume   276.97976631
_cell_formula_units_Z   4
loop_
 _symmetry_equiv_pos_site_id
 _symmetry_equiv_pos_as_xyz
  1  'x, y, z'
loop_
 _atom_site_type_symbol
 _atom_site_label
 _atom_site_symmetry_multiplicity
 _atom_site_fract_x
 _atom_site_fract_y
 _atom_site_fract_z
 _atom_site_occupancy
  Cl  Cl0  1  0.33185812  0.45528379  0.64169614  1
  Cl  Cl1  1  0.83185812  0.04471621  0.35830386  1
  Cl  Cl2  1  0.66814188  0.95528379  0.85830386  1
  Cl  Cl3  1  0.16814188  0.54471621  0.14169614  1
  O  O4  1  0.39879041  0.39129943  0.48182818  1
  O  O5  1  0.89879041  0.10870057  0.51817182  1
  O  O6  1  0.60120959  0.89129943  0.01817182  1
  O  O7  1  0.10120959  0.60870057  0.98182818  1
  O  O8  1  0.54103554  0.55149610  0.72737651  1
  O  O9  1  0.95896446  0.44850390  0.22737651  1
  O  O10  1  0.45896446  0.05149610  0.77262349  1
  O  O11  1  0.04103554  0.94850390  0.27262349  1
  F  F12  1  0.37123226  0.33540481  0.10390785  1
  F  F13  1  0.62876774  0.83540481  0.39609215  1
  F  F14  1  0.87123226  0.16459519  0.89609215  1
  F  F15  1  0.12876774  0.66459519  0.60390785  1
