# generated using pymatgen
data_CsB3O5
_symmetry_space_group_name_H-M   'P 1'
_cell_length_a   6.18000000
_cell_length_b   8.48000000
_cell_length_c   9.17000000
_cell_angle_alpha   90.00000000
_cell_angle_beta   90.00000000
_cell_angle_gamma   90.00000000
_symmetry_Int_Tables_number   1
_chemical_formula_structural   CsB3O5
_chemical_formula_sum   'Cs4 B12 O20'
_cell_volume   480.56668800
_cell_formula_units_Z   4
loop_
 _symmetry_equiv_pos_site_id
 _symmetry_equiv_pos_as_xyz
  1  'x, y, z'
loop_
 _atom_site_type_symbol
 _atom_site_label
 _atom_site_symmetry_multiplicity
 _atom_site_fract_x
 _atom_site_fract_y
 _atom_site_fract_z
 _atom_site_occupancy
  Cs  Cs0  1  0.51900000  0.73800000  0.63000000  1.0
  Cs  Cs1  1  0.01900000  0.76200000  0.37000000  1.0
  Cs  Cs2  1  0.48100000  0.23800000  0.87000000  1.0
  Cs  Cs3  1  0.98100000  0.26200000  0.13000000  1.0
  B  B4  1  0.91100000  0.35400000  0.63800000  1.0
  B  B5  1  0.41100000  0.14600000  0.36200000  1.0
  B  B6  1  0.08900000  0.85400000  0.86200000  1.0
  B  B7  1  0.58900000  0.64600000  0.13800000  1.0
  B  B8  1  0.96100000  0.57300000  0.79700000  1.0
  B  B9  1  0.46100000  0.92700000  0.20300000  1.0
  B  B10  1  0.73100000  0.12900000  0.53300000  1.0
  B  B11  1  0.23100000  0.37100000  0.46700000  1.0
  B  B12  1  0.26900000  0.62900000  0.96700000  1.0
  B  B13  1  0.76900000  0.87100000  0.03300000  1.0
  B  B14  1  0.03900000  0.07300000  0.70300000  1.0
  B  B15  1  0.53900000  0.42700000  0.29700000  1.0
  O  O16  1  0.81200000  0.47100000  0.74200000  1.0
  O  O17  1  0.26700000  0.79500000  0.95700000  1.0
  O  O18  1  0.23300000  0.20500000  0.45700000  1.0
  O  O19  1  0.76700000  0.70500000  0.04300000  1.0
  O  O20  1  0.46800000  0.76900000  0.21300000  1.0
  O  O21  1  0.96800000  0.73100000  0.78700000  1.0
  O  O22  1  0.53200000  0.26900000  0.28700000  1.0
  O  O23  1  0.03200000  0.23100000  0.71300000  1.0
  O  O24  1  0.61500000  0.97200000  0.09300000  1.0
  O  O25  1  0.11500000  0.52800000  0.90700000  1.0
  O  O26  1  0.38500000  0.47200000  0.40700000  1.0
  O  O27  1  0.88500000  0.02800000  0.59300000  1.0
  O  O28  1  0.18800000  0.97100000  0.75800000  1.0
  O  O29  1  0.68800000  0.52900000  0.24200000  1.0
  O  O30  1  0.07900000  0.43500000  0.55600000  1.0
  O  O31  1  0.57900000  0.06500000  0.44400000  1.0
  O  O32  1  0.92100000  0.93500000  0.94400000  1.0
  O  O33  1  0.42100000  0.56500000  0.05600000  1.0
  O  O34  1  0.73300000  0.29500000  0.54300000  1.0
  O  O35  1  0.31200000  0.02900000  0.25800000  1.0
