# generated using pymatgen
data_NaAsSe2
_symmetry_space_group_name_H-M   'P 1'
_cell_length_a   11.76289826
_cell_length_b   5.99104537
_cell_length_c   11.98190987
_cell_angle_alpha   90.00000000
_cell_angle_beta   90.98307731
_cell_angle_gamma   90.00000000
_symmetry_Int_Tables_number   1
_chemical_formula_structural   NaAsSe2
_chemical_formula_sum   'Na8 As8 Se16'
_cell_volume   844.26554778
_cell_formula_units_Z   8
loop_
 _symmetry_equiv_pos_site_id
 _symmetry_equiv_pos_as_xyz
  1  'x, y, z'
loop_
 _atom_site_type_symbol
 _atom_site_label
 _atom_site_symmetry_multiplicity
 _atom_site_fract_x
 _atom_site_fract_y
 _atom_site_fract_z
 _atom_site_occupancy
  Na  Na0  1  0.23777104  0.98617452  0.24523332  1
  Na  Na1  1  0.23777104  0.01382548  0.74523332  1
  Na  Na2  1  0.48075270  0.50004535  0.74140873  1
  Na  Na3  1  0.48075270  0.49995465  0.24140873  1
  Na  Na4  1  0.97965572  0.47730015  0.76407133  1
  Na  Na5  1  0.97965572  0.52269985  0.26407133  1
  Na  Na6  1  0.73999363  0.53020180  0.50025053  1
  Na  Na7  1  0.73999363  0.46979820  0.00025053  1
  As  As8  1  0.25067040  0.54454139  0.96255111  1
  As  As9  1  0.25067040  0.45545861  0.46255111  1
  As  As10  1  0.00239575  0.90502456  0.99675544  1
  As  As11  1  0.00239575  0.09497544  0.49675544  1
  As  As12  1  0.74810978  0.92487409  0.77553583  1
  As  As13  1  0.74810978  0.07512591  0.27553583  1
  As  As14  1  0.50066906  0.98248383  0.94991365  1
  As  As15  1  0.50066906  0.01751617  0.44991365  1
  Se  Se16  1  0.48922055  0.99860465  0.25580113  1
  Se  Se17  1  0.48922055  0.00139535  0.75580113  1
  Se  Se18  1  0.46404276  0.58746816  0.99044756  1
  Se  Se19  1  0.46404276  0.41253184  0.49044756  1
  Se  Se20  1  0.22990248  0.51550927  0.76857959  1
  Se  Se21  1  0.22990248  0.48449073  0.26857959  1
  Se  Se22  1  0.96220275  0.97414845  0.79813666  1
  Se  Se23  1  0.96220275  0.02585155  0.29813666  1
  Se  Se24  1  0.71178193  0.96937401  0.97676907  1
  Se  Se25  1  0.71178193  0.03062599  0.47676907  1
  Se  Se26  1  0.73089313  0.53870219  0.75049344  1
  Se  Se27  1  0.73089313  0.46129781  0.25049344  1
  Se  Se28  1  0.21367168  0.94584624  0.99420314  1
  Se  Se29  1  0.21367168  0.05415376  0.49420314  1
  Se  Se30  1  0.99075664  0.48133651  0.51348046  1
  Se  Se31  1  0.99075664  0.51866349  0.01348046  1
