# generated using pymatgen
data_Mo(BrO)2
_symmetry_space_group_name_H-M   'P 1'
_cell_length_a   3.92812689
_cell_length_b   7.70336868
_cell_length_c   8.15205615
_cell_angle_alpha   103.49171857
_cell_angle_beta   103.93255446
_cell_angle_gamma   90.00433160
_symmetry_Int_Tables_number   1
_chemical_formula_structural   Mo(BrO)2
_chemical_formula_sum   'Mo2 Br4 O4'
_cell_volume   232.40125649
_cell_formula_units_Z   2
loop_
 _symmetry_equiv_pos_site_id
 _symmetry_equiv_pos_as_xyz
  1  'x, y, z'
loop_
 _atom_site_type_symbol
 _atom_site_label
 _atom_site_symmetry_multiplicity
 _atom_site_fract_x
 _atom_site_fract_y
 _atom_site_fract_z
 _atom_site_occupancy
  Mo  Mo0  1  0.93429950  0.50179874  0.99902186  1
  Mo  Mo1  1  0.06487469  0.00181986  0.99915937  1
  Br  Br2  1  0.12970140  0.12336754  0.31239504  1
  Br  Br3  1  0.18222657  0.62347442  0.31231018  1
  Br  Br4  1  0.81710525  0.96868108  0.68594146  1
  Br  Br5  1  0.86890241  0.46853053  0.68575902  1
  O  O6  1  0.50017510  0.02233962  0.99915499  1
  O  O7  1  0.49905715  0.52226910  0.99901864  1
  O  O8  1  0.98864807  0.27840384  0.99913188  1
  O  O9  1  0.01050285  0.77837427  0.99910356  1
