# generated using pymatgen
data_Na2Cd(GeS3)2
_symmetry_space_group_name_H-M   'P 1'
_cell_length_a   7.43731759
_cell_length_b   7.43731759
_cell_length_c   11.74496727
_cell_angle_alpha   94.51623043
_cell_angle_beta   94.51623043
_cell_angle_gamma   119.93125696
_symmetry_Int_Tables_number   1
_chemical_formula_structural   Na2Cd(GeS3)2
_chemical_formula_sum   'Na4 Cd2 Ge4 S12'
_cell_volume   555.99850019
_cell_formula_units_Z   2
loop_
 _symmetry_equiv_pos_site_id
 _symmetry_equiv_pos_as_xyz
  1  'x, y, z'
loop_
 _atom_site_type_symbol
 _atom_site_label
 _atom_site_symmetry_multiplicity
 _atom_site_fract_x
 _atom_site_fract_y
 _atom_site_fract_z
 _atom_site_occupancy
  Cd  Cd0  1  0.65030900  0.15242700  0.72074200  1
  Cd  Cd1  1  0.15242700  0.65030900  0.22074200  1
  Ge  Ge2  1  0.23571900  0.18680500  0.24620800  1
  Ge  Ge3  1  0.18680500  0.23571900  0.74620800  1
  Ge  Ge4  1  0.16472000  0.88919900  0.49862500  1
  Ge  Ge5  1  0.88919900  0.16472000  0.99862500  1
  Na  Na6  1  0.16707700  0.76557400  0.88034100  1
  Na  Na7  1  0.76557400  0.16707700  0.38034100  1
  Na  Na8  1  0.58030000  0.55753500  0.01354700  1
  Na  Na9  1  0.55753500  0.58030000  0.51354700  1
  S  S10  1  0.40394800  0.03134900  0.19269300  1
  S  S11  1  0.03134900  0.40394800  0.69269300  1
  S  S12  1  0.92391900  0.61021100  0.38188800  1
  S  S13  1  0.61021100  0.92391900  0.88188800  1
  S  S14  1  0.02328100  0.89009600  0.66346000  1
  S  S15  1  0.89009600  0.02328100  0.16346000  1
  S  S16  1  0.91760400  0.47589400  0.02629900  1
  S  S17  1  0.47589400  0.91760400  0.52629900  1
  S  S18  1  0.52541400  0.41612500  0.73747000  1
  S  S19  1  0.41612500  0.52541400  0.23747000  1
  S  S20  1  0.18031100  0.17988200  0.43529800  1
  S  S21  1  0.17988200  0.18031100  0.93529800  1
