# generated using pymatgen
data_TlAgCl2
_symmetry_space_group_name_H-M   'P 1'
_cell_length_a   6.39600821
_cell_length_b   6.39600821
_cell_length_c   6.39600821
_cell_angle_alpha   107.73142830
_cell_angle_beta   107.73142830
_cell_angle_gamma   113.00981742
_symmetry_Int_Tables_number   1
_chemical_formula_structural   TlAgCl2
_chemical_formula_sum   'Tl2 Ag2 Cl4'
_cell_volume   200.84116927
_cell_formula_units_Z   2
loop_
 _symmetry_equiv_pos_site_id
 _symmetry_equiv_pos_as_xyz
  1  'x, y, z'
loop_
 _atom_site_type_symbol
 _atom_site_label
 _atom_site_symmetry_multiplicity
 _atom_site_fract_x
 _atom_site_fract_y
 _atom_site_fract_z
 _atom_site_occupancy
  Ag  Ag0  1  0.25000000  0.75000000  0.50000000  1
  Ag  Ag1  1  0.50000000  0.50000000  -0.00000000  1
  Cl  Cl2  1  0.87500000  0.81627772  0.44127772  1
  Cl  Cl3  1  0.37500000  0.43372228  0.55872228  1
  Cl  Cl4  1  0.18372228  0.62500000  0.05872228  1
  Cl  Cl5  1  0.56627772  0.12500000  0.94127772  1
  Tl  Tl6  1  0.75000000  0.25000000  0.50000000  1
  Tl  Tl7  1  0.00000000  0.00000000  0.00000000  1
