# generated using pymatgen
data_Bi10(MoO8)3
_symmetry_space_group_name_H-M   'P 1'
_cell_length_a   5.74329727
_cell_length_b   8.83470027
_cell_length_c   12.31520567
_cell_angle_alpha   95.72096389
_cell_angle_beta   103.48136376
_cell_angle_gamma   90.00087403
_symmetry_Int_Tables_number   1
_chemical_formula_structural   Bi10(MoO8)3
_chemical_formula_sum   'Bi10 Mo3 O24'
_cell_volume   604.45806566
_cell_formula_units_Z   1
loop_
 _symmetry_equiv_pos_site_id
 _symmetry_equiv_pos_as_xyz
  1  'x, y, z'
loop_
 _atom_site_type_symbol
 _atom_site_label
 _atom_site_symmetry_multiplicity
 _atom_site_fract_x
 _atom_site_fract_y
 _atom_site_fract_z
 _atom_site_occupancy
  Bi  Bi0  1  0.54405400  0.32365100  0.07280600  1.0
  Bi  Bi1  1  0.39897800  0.45353800  0.61189200  1.0
  Bi  Bi2  1  0.47118000  0.67635300  0.92720300  1.0
  Bi  Bi3  1  0.79844700  0.18818000  0.52287400  1.0
  Bi  Bi4  1  0.93160600  0.41169500  0.84878000  1.0
  Bi  Bi5  1  0.78712600  0.54645200  0.38806400  1.0
  Bi  Bi6  1  0.88034600  0.75184700  0.70364700  1.0
  Bi  Bi7  1  0.08285800  0.58834000  0.15115200  1.0
  Bi  Bi8  1  0.17668300  0.24816600  0.29631700  1.0
  Bi  Bi9  1  0.27557900  0.81187200  0.47710200  1.0
  Mo  Mo10  1  0.67978700  0.92581800  0.25330100  1.0
  Mo  Mo11  1  0.00052600  0.99993900  0.00003300  1.0
  Mo  Mo12  1  0.42643700  0.07415900  0.74668900  1.0
  O  O13  1  0.10942800  0.64490300  0.34727800  1.0
  O  O14  1  0.61721500  0.00528400  0.65488100  1.0
  O  O15  1  0.76219900  0.35518200  0.65269000  1.0
  O  O16  1  0.76103400  0.93778800  0.88081700  1.0
  O  O17  1  0.29697800  0.49999500  0.00000500  1.0
  O  O18  1  0.99188200  0.34869200  0.44712300  1.0
  O  O19  1  0.77848300  0.49999600  0.00000400  1.0
  O  O20  1  0.15717200  0.16225800  0.97335500  1.0
  O  O21  1  0.26553900  0.91992000  0.78378900  1.0
  O  O22  1  0.48169800  0.08004400  0.21621900  1.0
  O  O23  1  0.54685500  0.83118400  0.34834800  1.0
  O  O24  1  0.70429300  0.77370900  0.14812400  1.0
  O  O25  1  0.34900500  0.40624600  0.20758000  1.0
  O  O26  1  0.19847900  0.16878700  0.65164200  1.0
  O  O27  1  0.55613000  0.22625900  0.85189200  1.0
  O  O28  1  0.14137200  0.59378600  0.79243200  1.0
  O  O29  1  0.88014500  0.06215700  0.11925100  1.0
  O  O30  1  0.64779400  0.58103300  0.78255400  1.0
  O  O31  1  0.02571700  0.68738500  0.55189500  1.0
  O  O32  1  0.86531200  0.41893500  0.21744400  1.0
  O  O33  1  0.47385100  0.31263900  0.44808600  1.0
  O  O34  1  0.18387300  0.83771000  0.02670500  1.0
  O  O35  1  0.96229200  0.99475900  0.34514200  1.0
  O  O36  1  0.54464600  0.65133800  0.55288300  1.0
