# generated using pymatgen
data_BeH8SO8
_symmetry_space_group_name_H-M   'P 1'
_cell_length_a   7.73388731
_cell_length_b   7.73388731
_cell_length_c   7.73388731
_cell_angle_alpha   97.12026187
_cell_angle_beta   115.97785983
_cell_angle_gamma   115.97785983
_symmetry_Int_Tables_number   1
_chemical_formula_structural   BeH8SO8
_chemical_formula_sum   'Be2 H16 S2 O16'
_cell_volume   344.10445183
_cell_formula_units_Z   2
loop_
 _symmetry_equiv_pos_site_id
 _symmetry_equiv_pos_as_xyz
  1  'x, y, z'
loop_
 _atom_site_type_symbol
 _atom_site_label
 _atom_site_symmetry_multiplicity
 _atom_site_fract_x
 _atom_site_fract_y
 _atom_site_fract_z
 _atom_site_occupancy
  Be  Be0  1  0.00000000  0.00000000  0.00000000  1
  Be  Be1  1  0.00000000  0.50000000  0.50000000  1
  H  H2  1  0.91035700  0.24188400  0.89583600  1
  H  H3  1  0.08964300  0.98547900  0.33152700  1
  H  H4  1  0.08964300  0.60416400  0.25811600  1
  H  H5  1  0.91035700  0.16847300  0.51452100  1
  H  H6  1  0.65395200  0.48547900  0.39583600  1
  H  H7  1  0.34604800  0.74188400  0.83152700  1
  H  H8  1  0.34604800  0.10416400  0.01452100  1
  H  H9  1  0.65395200  0.66847300  0.75811600  1
  H  H10  1  0.18760400  0.34978500  0.07369300  1
  H  H11  1  0.81239600  0.88608900  0.16218100  1
  H  H12  1  0.81239600  0.42630700  0.15021500  1
  H  H13  1  0.18760400  0.33781900  0.61391100  1
  H  H14  1  0.72390800  0.38608900  0.57369300  1
  H  H15  1  0.27609200  0.84978500  0.66218100  1
  H  H16  1  0.27609200  0.92630700  0.11391100  1
  H  H17  1  0.72390800  0.83781900  0.65021500  1
  O  O18  1  0.03116300  0.21612400  0.97708100  1
  O  O19  1  0.96883700  0.94591800  0.18496100  1
  O  O20  1  0.96883700  0.52291900  0.28387600  1
  O  O21  1  0.03116300  0.31503900  0.55408200  1
  O  O22  1  0.76095700  0.44591800  0.47708100  1
  O  O23  1  0.23904300  0.71612400  0.68496100  1
  O  O24  1  0.23904300  0.02291900  0.05408200  1
  O  O25  1  0.76095700  0.81503900  0.78387600  1
  O  O26  1  0.70748800  0.29388600  0.74849700  1
  O  O27  1  0.29251200  0.04100900  0.58639800  1
  O  O28  1  0.29251200  0.75150300  0.20611400  1
  O  O29  1  0.70748800  0.91360200  0.45899100  1
  O  O30  1  0.45461100  0.54100900  0.24849700  1
  O  O31  1  0.54538900  0.79388600  0.08639800  1
  O  O32  1  0.54538900  0.25150300  0.95899100  1
  O  O33  1  0.45461100  0.41360200  0.70611400  1
  S  S34  1  0.50000000  0.25000000  0.75000000  1
  S  S35  1  0.50000000  0.75000000  0.25000000  1
