# generated using pymatgen
data_As16S17
_symmetry_space_group_name_H-M   'P 1'
_cell_length_a   7.78444286
_cell_length_b   7.82449036
_cell_length_c   19.92979246
_cell_angle_alpha   82.43013278
_cell_angle_beta   84.55086152
_cell_angle_gamma   88.19153478
_symmetry_Int_Tables_number   1
_chemical_formula_structural   As16S17
_chemical_formula_sum   'As16 S17'
_cell_volume   1197.66921524
_cell_formula_units_Z   1
loop_
 _symmetry_equiv_pos_site_id
 _symmetry_equiv_pos_as_xyz
  1  'x, y, z'
loop_
 _atom_site_type_symbol
 _atom_site_label
 _atom_site_symmetry_multiplicity
 _atom_site_fract_x
 _atom_site_fract_y
 _atom_site_fract_z
 _atom_site_occupancy
  As  As0  1  0.22301300  0.80930600  0.96265100  1
  As  As1  1  0.19826000  0.77330100  0.79048700  1
  As  As2  1  0.22248900  0.80901900  0.46214500  1
  As  As3  1  0.52049700  0.75211100  0.82372100  1
  As  As4  1  0.19847000  0.77363100  0.28994700  1
  As  As5  1  0.52039500  0.75057200  0.32336600  1
  As  As6  1  0.69239200  0.48749100  0.58474500  1
  As  As7  1  0.24435500  0.48544100  0.93844800  1
  As  As8  1  0.74159700  0.53064400  0.07372400  1
  As  As9  1  0.24219800  0.48471900  0.43755700  1
  As  As10  1  0.44757700  0.31135900  0.65218800  1
  As  As11  1  0.87193400  0.21750800  0.71862200  1
  As  As12  1  0.78015500  0.20166800  0.54036000  1
  As  As13  1  0.39068000  0.26354600  0.16424400  1
  As  As14  1  0.86245600  0.22155200  0.21728000  1
  As  As15  1  0.76523700  0.21856200  0.04069900  1
  S  S16  1  0.07913800  0.92159700  0.87331500  1
  S  S17  1  0.48372800  0.89815900  0.91457300  1
  S  S18  1  0.07861400  0.92136100  0.37284400  1
  S  S19  1  0.48335600  0.89669200  0.41430800  1
  S  S20  1  0.86774600  0.49519200  0.66532600  1
  S  S21  1  0.10916200  0.51354800  0.84192900  1
  S  S22  1  0.51202000  0.48768600  0.88495300  1
  S  S23  1  0.46285000  0.53573700  0.11737100  1
  S  S24  1  0.89547100  0.49712500  0.16527000  1
  S  S25  1  0.10741100  0.51410500  0.34097900  1
  S  S26  1  0.51033100  0.48650700  0.38486900  1
  S  S27  1  0.58170400  0.19150400  0.74314000  1
  S  S28  1  0.57341000  0.19070800  0.24690300  1
  S  S29  1  0.49748800  0.12930200  0.57093800  1
  S  S30  1  0.93580800  0.08063200  0.62522900  1
  S  S31  1  0.49511600  0.12662600  0.07480400  1
  S  S32  1  0.92804300  0.09199000  0.12206700  1
