# generated using pymatgen
data_NbSeF9
_symmetry_space_group_name_H-M   'P 1'
_cell_length_a   8.77159066
_cell_length_b   8.77159066
_cell_length_c   8.77159066
_cell_angle_alpha   92.76254804
_cell_angle_beta   92.76254804
_cell_angle_gamma   92.76254804
_symmetry_Int_Tables_number   1
_chemical_formula_structural   NbSeF9
_chemical_formula_sum   'Nb4 Se4 F36'
_cell_volume   672.46168124
_cell_formula_units_Z   4
loop_
 _symmetry_equiv_pos_site_id
 _symmetry_equiv_pos_as_xyz
  1  'x, y, z'
loop_
 _atom_site_type_symbol
 _atom_site_label
 _atom_site_symmetry_multiplicity
 _atom_site_fract_x
 _atom_site_fract_y
 _atom_site_fract_z
 _atom_site_occupancy
  F  F0  1  0.90435527  0.42848618  0.51355426  1
  F  F1  1  0.42848618  0.51355426  0.90435527  1
  F  F2  1  0.51355426  0.90435527  0.42848618  1
  F  F3  1  0.81899714  0.12760125  0.93714780  1
  F  F4  1  0.12760125  0.93714780  0.81899714  1
  F  F5  1  0.93714780  0.81899714  0.12760125  1
  F  F6  1  0.83979254  0.28671653  0.20633164  1
  F  F7  1  0.28671653  0.20633164  0.83979254  1
  F  F8  1  0.45452809  0.35688151  0.60703240  1
  F  F9  1  0.60703240  0.45452809  0.35688151  1
  F  F10  1  0.35688151  0.60703240  0.45452809  1
  F  F11  1  0.43526017  0.19022851  0.33336937  1
  F  F12  1  0.33336937  0.43526017  0.19022851  1
  F  F13  1  0.19022851  0.33336937  0.43526017  1
  F  F14  1  0.79215555  0.72975792  0.37780746  1
  F  F15  1  0.37780746  0.79215555  0.72975792  1
  F  F16  1  0.72975792  0.37780746  0.79215555  1
  F  F17  1  0.03603391  0.56880928  0.26808438  1
  F  F18  1  0.26808438  0.03603391  0.56880928  1
  F  F19  1  0.56880928  0.26808438  0.03603391  1
  F  F20  1  0.48482928  0.75400436  0.18261250  1
  F  F21  1  0.18261250  0.48482928  0.75400436  1
  F  F22  1  0.75400436  0.18261250  0.48482928  1
  F  F23  1  0.63749274  0.99823781  0.20196656  1
  F  F24  1  0.20196656  0.63749274  0.99823781  1
  F  F25  1  0.99823781  0.20196656  0.63749274  1
  F  F26  1  0.06919008  0.74077866  0.54195102  1
  F  F27  1  0.54195102  0.06919008  0.74077866  1
  F  F28  1  0.74077866  0.54195102  0.06919008  1
  F  F29  1  0.97032568  0.98899616  0.39290085  1
  F  F30  1  0.39290085  0.97032568  0.98899616  1
  F  F31  1  0.98899616  0.39290085  0.97032568  1
  F  F32  1  0.91318143  0.69065253  0.82800486  1
  F  F33  1  0.82800486  0.91318143  0.69065253  1
  F  F34  1  0.69065253  0.82800486  0.91318143  1
  F  F35  1  0.20633164  0.83979254  0.28671653  1
  Nb  Nb36  1  0.99880895  0.76928574  0.34003234  1
  Nb  Nb37  1  0.34003234  0.99880895  0.76928574  1
  Nb  Nb38  1  0.76928574  0.34003234  0.99880895  1
  Nb  Nb39  1  0.40471748  0.40471748  0.40471748  1
  Se  Se40  1  0.45702845  0.93755417  0.24470480  1
  Se  Se41  1  0.24470480  0.45702845  0.93755417  1
  Se  Se42  1  0.93755417  0.24470480  0.45702845  1
  Se  Se43  1  0.87591139  0.87591139  0.87591139  1
