# generated using pymatgen
data_K2MgSiSe4
_symmetry_space_group_name_H-M   'P 1'
_cell_length_a   6.50286564
_cell_length_b   6.50286564
_cell_length_c   6.50286564
_cell_angle_alpha   104.85010216
_cell_angle_beta   104.85010216
_cell_angle_gamma   119.17100235
_symmetry_Int_Tables_number   1
_chemical_formula_structural   K2MgSiSe4
_chemical_formula_sum   'K2 Mg1 Si1 Se4'
_cell_volume   207.06851932
_cell_formula_units_Z   1
loop_
 _symmetry_equiv_pos_site_id
 _symmetry_equiv_pos_as_xyz
  1  'x, y, z'
loop_
 _atom_site_type_symbol
 _atom_site_label
 _atom_site_symmetry_multiplicity
 _atom_site_fract_x
 _atom_site_fract_y
 _atom_site_fract_z
 _atom_site_occupancy
  K  K0  1  0.50000000  -0.00000000  0.50000000  1
  K  K1  1  1.00000000  0.50000000  0.50000000  1
  Mg  Mg2  1  0.50000000  0.50000000  -0.00000000  1
  Se  Se3  1  0.05402681  0.05402681  0.67612737  1
  Se  Se4  1  0.94597319  0.62210056  -0.00000000  1
  Se  Se5  1  0.62210056  0.94597319  -0.00000000  1
  Se  Se6  1  0.37789944  0.37789944  0.32387263  1
  Si  Si7  1  0.00000000  0.00000000  0.00000000  1
