# generated using pymatgen
data_Na2TiF6
_symmetry_space_group_name_H-M   'P 1'
_cell_length_a   5.03101814
_cell_length_b   9.13356479
_cell_length_c   9.13376577
_cell_angle_alpha   119.99755366
_cell_angle_beta   89.99893987
_cell_angle_gamma   90.00272471
_symmetry_Int_Tables_number   1
_chemical_formula_structural   Na2TiF6
_chemical_formula_sum   'Na6 Ti3 F18'
_cell_volume   363.48576206
_cell_formula_units_Z   3
loop_
 _symmetry_equiv_pos_site_id
 _symmetry_equiv_pos_as_xyz
  1  'x, y, z'
loop_
 _atom_site_type_symbol
 _atom_site_label
 _atom_site_symmetry_multiplicity
 _atom_site_fract_x
 _atom_site_fract_y
 _atom_site_fract_z
 _atom_site_occupancy
  Na  Na0  1  0.00011496  0.99991759  0.37176428  1
  Na  Na1  1  0.99995976  0.62810778  0.62812262  1
  Na  Na2  1  0.50011453  0.99990900  0.70772664  1
  Na  Na3  1  0.49985745  0.70779055  0.99992168  1
  Na  Na4  1  0.50005941  0.29238193  0.29241911  1
  Na  Na5  1  0.99990645  0.37181669  0.99996502  1
  Ti  Ti6  1  0.49683689  0.66665612  0.33324887  1
  Ti  Ti7  1  0.50314006  0.33326025  0.66671728  1
  Ti  Ti8  1  0.00000506  0.00008585  0.00002961  1
  F  F9  1  0.70931171  0.75177746  0.52834866  1
  F  F10  1  0.21283837  0.88916116  0.80571029  1
  F  F11  1  0.71601130  0.40842054  0.54804410  1
  F  F12  1  0.29067138  0.52833378  0.75183653  1
  F  F13  1  0.71593230  0.45196852  0.86049828  1
  F  F14  1  0.78721921  0.08348751  0.19434962  1
  F  F15  1  0.78724096  0.11100459  0.91665594  1
  F  F16  1  0.21279981  0.19439781  0.08342933  1
  F  F17  1  0.78714338  0.80575588  0.88913403  1
  F  F18  1  0.29081696  0.24808430  0.77662623  1
  F  F19  1  0.21279672  0.91668348  0.11094321  1
  F  F20  1  0.28398869  0.54796247  0.40840144  1
  F  F21  1  0.71590470  0.13951927  0.59164049  1
  F  F22  1  0.70932986  0.47156665  0.22329923  1
  F  F23  1  0.28403325  0.86046979  0.45195399  1
  F  F24  1  0.28405399  0.59157732  0.13948466  1
  F  F25  1  0.70920882  0.77661429  0.24810768  1
  F  F26  1  0.29070003  0.22328743  0.47161817  1
