# generated using pymatgen
data_P2Pb4SO12
_symmetry_space_group_name_H-M   'P 1'
_cell_length_a   9.24493930
_cell_length_b   9.24493930
_cell_length_c   9.24493930
_cell_angle_alpha   109.09007093
_cell_angle_beta   109.66213099
_cell_angle_gamma   109.66213099
_symmetry_Int_Tables_number   1
_chemical_formula_structural   P2Pb4SO12
_chemical_formula_sum   'P4 Pb8 S2 O24'
_cell_volume   608.24128920
_cell_formula_units_Z   2
loop_
 _symmetry_equiv_pos_site_id
 _symmetry_equiv_pos_as_xyz
  1  'x, y, z'
loop_
 _atom_site_type_symbol
 _atom_site_label
 _atom_site_symmetry_multiplicity
 _atom_site_fract_x
 _atom_site_fract_y
 _atom_site_fract_z
 _atom_site_occupancy
  O  O0  1  0.00921100  0.31903400  0.72272000  1
  O  O1  1  0.99078900  0.71350900  0.30982300  1
  O  O2  1  0.90368600  0.43096600  0.94017700  1
  O  O3  1  0.09631400  0.03649100  0.52728000  1
  O  O4  1  0.50921100  0.47272000  0.56903400  1
  O  O5  1  0.49078900  0.05982300  0.96350900  1
  O  O6  1  0.40368600  0.69017700  0.68096600  1
  O  O7  1  0.59631400  0.27728000  0.28649100  1
  O  O8  1  0.65475000  0.77430300  0.22184900  1
  O  O9  1  0.05245400  0.18290100  0.02815100  1
  O  O10  1  0.34525000  0.56709900  0.11955300  1
  O  O11  1  0.94754600  0.97569700  0.13044700  1
  O  O12  1  0.31727500  0.93232900  0.53089500  1
  O  O13  1  0.90143400  0.53638000  0.71910500  1
  O  O14  1  0.09856600  0.81767100  0.63494600  1
  O  O15  1  0.68272500  0.21362000  0.61505400  1
  O  O16  1  0.81727500  0.28089500  0.18232900  1
  O  O17  1  0.40143400  0.46910500  0.78638000  1
  O  O18  1  0.59856600  0.38494600  0.06767100  1
  O  O19  1  0.18272500  0.36505400  0.46362000  1
  O  O20  1  0.15475000  0.97184900  0.02430300  1
  O  O21  1  0.55245400  0.77815100  0.43290100  1
  O  O22  1  0.84525000  0.86955300  0.81709900  1
  O  O23  1  0.44754600  0.88044700  0.22569700  1
  P  P24  1  0.62559100  0.25059100  0.12500000  1
  P  P25  1  0.37440900  0.49940900  0.62500000  1
  P  P26  1  0.87440900  0.37500000  0.74940900  1
  P  P27  1  0.12559100  0.87500000  0.50059100  1
  Pb  Pb28  1  0.25039100  0.26880900  0.86174900  1
  Pb  Pb29  1  0.74960900  0.61135800  0.01841800  1
  Pb  Pb30  1  0.09294000  0.48119100  0.23158200  1
  Pb  Pb31  1  0.90706000  0.13864200  0.38825100  1
  Pb  Pb32  1  0.75039100  0.61174900  0.51880900  1
  Pb  Pb33  1  0.24960900  0.76841800  0.86135800  1
  Pb  Pb34  1  0.59294000  0.98158200  0.73119100  1
  Pb  Pb35  1  0.40706000  0.13825100  0.38864200  1
  S  S36  1  0.50000000  0.75000000  0.25000000  1
  S  S37  1  0.00000000  0.00000000  0.00000000  1
