# generated using pymatgen
data_TePtCl2
_symmetry_space_group_name_H-M   'P 1'
_cell_length_a   3.77963855
_cell_length_b   3.77963855
_cell_length_c   7.90235810
_cell_angle_alpha   76.37877737
_cell_angle_beta   76.37877737
_cell_angle_gamma   60.00804052
_symmetry_Int_Tables_number   1
_chemical_formula_structural   TePtCl2
_chemical_formula_sum   'Te1 Pt1 Cl2'
_cell_volume   94.08908908
_cell_formula_units_Z   1
loop_
 _symmetry_equiv_pos_site_id
 _symmetry_equiv_pos_as_xyz
  1  'x, y, z'
loop_
 _atom_site_type_symbol
 _atom_site_label
 _atom_site_symmetry_multiplicity
 _atom_site_fract_x
 _atom_site_fract_y
 _atom_site_fract_z
 _atom_site_occupancy
  Cl  Cl0  1  0.98204817  0.98204817  0.04889179  1
  Cl  Cl1  1  0.77937572  0.77937572  0.66647855  1
  Pt  Pt2  1  0.50444636  0.50444636  0.48848171  1
  Te  Te3  1  0.23413224  0.23413224  0.29614695  1
