# generated using pymatgen
data_SiH8
_symmetry_space_group_name_H-M   'P 1'
_cell_length_a   4.54558400
_cell_length_b   4.55161589
_cell_length_c   4.54558400
_cell_angle_alpha   119.95617180
_cell_angle_beta   90.00000000
_cell_angle_gamma   119.95617180
_symmetry_Int_Tables_number   1
_chemical_formula_structural   SiH8
_chemical_formula_sum   'Si1 H8'
_cell_volume   66.58928870
_cell_formula_units_Z   1
loop_
 _symmetry_equiv_pos_site_id
 _symmetry_equiv_pos_as_xyz
  1  'x, y, z'
loop_
 _atom_site_type_symbol
 _atom_site_label
 _atom_site_symmetry_multiplicity
 _atom_site_fract_x
 _atom_site_fract_y
 _atom_site_fract_z
 _atom_site_occupancy
  Si  Si8  1  0.00000000  0.00000000  0.00000000  1.0
  H  H0  1  0.44178600  0.88357200  0.44178600  1.0
  H  H1  1  0.55821400  0.11642800  0.55821400  1.0
  H  H2  1  0.19165200  0.38330400  0.69165200  1.0
  H  H3  1  0.30834800  0.61669600  0.80834800  1.0
  H  H4  1  0.86502400  0.26637600  0.13318800  1.0
  H  H5  1  0.40135200  0.26637600  0.13318800  1.0
  H  H6  1  0.86681200  0.73362400  0.59864800  1.0
  H  H7  1  0.86681200  0.73362400  0.13497600  1.0
