# generated using pymatgen
data_ScP3(HO2)6
_symmetry_space_group_name_H-M   'P 1'
_cell_length_a   8.27399992
_cell_length_b   8.27399992
_cell_length_c   9.89016135
_cell_angle_alpha   65.27304200
_cell_angle_beta   65.27304200
_cell_angle_gamma   60.00000000
_symmetry_Int_Tables_number   1
_chemical_formula_structural   ScP3(HO2)6
_chemical_formula_sum   'Sc2 P6 H12 O24'
_cell_volume   513.42799883
_cell_formula_units_Z   2
loop_
 _symmetry_equiv_pos_site_id
 _symmetry_equiv_pos_as_xyz
  1  'x, y, z'
loop_
 _atom_site_type_symbol
 _atom_site_label
 _atom_site_symmetry_multiplicity
 _atom_site_fract_x
 _atom_site_fract_y
 _atom_site_fract_z
 _atom_site_occupancy
  Sc  Sc42  1  0.08280000  0.08280000  0.75160000  1.0
  Sc  Sc43  1  0.58280000  0.58280000  0.25160000  1.0
  P  P36  1  0.48670000  0.18110000  0.50000000  1.0
  P  P37  1  0.18110000  0.83220000  0.50000000  1.0
  P  P38  1  0.83220000  0.48670000  0.50000000  1.0
  P  P39  1  0.98670000  0.33220000  0.00000000  1.0
  P  P40  1  0.33220000  0.68110000  0.00000000  1.0
  P  P41  1  0.68110000  0.98670000  0.00000000  1.0
  H  H0  1  0.77300000  0.07800000  0.53300000  1.0
  H  H1  1  0.07800000  0.61600000  0.53300000  1.0
  H  H2  1  0.61600000  0.77300000  0.53300000  1.0
  H  H3  1  0.27300000  0.11600000  0.03300000  1.0
  H  H4  1  0.11600000  0.57800000  0.03300000  1.0
  H  H5  1  0.57800000  0.27300000  0.03300000  1.0
  H  H6  1  0.59800000  0.97000000  0.85700000  1.0
  H  H7  1  0.97000000  0.57500000  0.85700000  1.0
  H  H8  1  0.57500000  0.59800000  0.85700000  1.0
  H  H9  1  0.09800000  0.07500000  0.35700000  1.0
  H  H10  1  0.07500000  0.47000000  0.35700000  1.0
  H  H11  1  0.47000000  0.09800000  0.35700000  1.0
  O  O12  1  0.30510000  0.17830000  0.61460000  1.0
  O  O13  1  0.17830000  0.90200000  0.61460000  1.0
  O  O14  1  0.90200000  0.30510000  0.61460000  1.0
  O  O15  1  0.80510000  0.40200000  0.11460000  1.0
  O  O16  1  0.40200000  0.67830000  0.11460000  1.0
  O  O17  1  0.67830000  0.80510000  0.11460000  1.0
  O  O18  1  0.47750000  0.36890000  0.38300000  1.0
  O  O19  1  0.36890000  0.77060000  0.38300000  1.0
  O  O20  1  0.77060000  0.47750000  0.38300000  1.0
  O  O21  1  0.97750000  0.27060000  0.88300000  1.0
  O  O22  1  0.27060000  0.86890000  0.88300000  1.0
  O  O23  1  0.86890000  0.97750000  0.88300000  1.0
  O  O24  1  0.64180000  0.08470000  0.59180000  1.0
  O  O25  1  0.08470000  0.68170000  0.59180000  1.0
  O  O26  1  0.68170000  0.64180000  0.59180000  1.0
  O  O27  1  0.14180000  0.18170000  0.09180000  1.0
  O  O28  1  0.18170000  0.58470000  0.09180000  1.0
  O  O29  1  0.58470000  0.14180000  0.09180000  1.0
  O  O30  1  0.55700000  0.02590000  0.41210000  1.0
  O  O31  1  0.02590000  0.00500000  0.41210000  1.0
  O  O32  1  0.00500000  0.55700000  0.41210000  1.0
  O  O33  1  0.05700000  0.50500000  0.91210000  1.0
  O  O34  1  0.50500000  0.52590000  0.91210000  1.0
  O  O35  1  0.52590000  0.05700000  0.91210000  1.0
