# generated using pymatgen
data_Sr5Ca5P6(ClO12)2
_symmetry_space_group_name_H-M   'P 1'
_cell_length_a   9.86961800
_cell_length_b   7.03290100
_cell_length_c   9.88216862
_cell_angle_alpha   90.00000000
_cell_angle_beta   119.92971365
_cell_angle_gamma   90.00000000
_symmetry_Int_Tables_number   1
_chemical_formula_structural   Sr5Ca5P6(ClO12)2
_chemical_formula_sum   'Sr5 Ca5 P6 Cl2 O24'
_cell_volume   594.46308931
_cell_formula_units_Z   1
loop_
 _symmetry_equiv_pos_site_id
 _symmetry_equiv_pos_as_xyz
  1  'x, y, z'
loop_
 _atom_site_type_symbol
 _atom_site_label
 _atom_site_symmetry_multiplicity
 _atom_site_fract_x
 _atom_site_fract_y
 _atom_site_fract_z
 _atom_site_occupancy
  Sr  Sr0  1  0.25262000  0.50000000  0.25222700  1
  Sr  Sr1  1  0.99838000  0.50000000  0.74669400  1
  Sr  Sr2  1  0.25234700  0.00000000  0.99864900  1
  Sr  Sr3  1  0.74654800  0.00000000  0.74865700  1
  Sr  Sr4  1  0.00163900  0.00000000  0.25315600  1
  Ca  Ca5  1  0.66711800  0.25147100  0.33312500  1
  Ca  Ca6  1  0.33317300  0.75138900  0.66662100  1
  Ca  Ca7  1  0.33317300  0.24861100  0.66662100  1
  Ca  Ca8  1  0.66711800  0.74852900  0.33312500  1
  Ca  Ca9  1  0.73323000  0.50000000  0.98988800  1
  P  P10  1  0.58714000  0.50000000  0.62298600  1
  P  P11  1  0.03445900  0.50000000  0.41337300  1
  P  P12  1  0.38125300  0.50000000  0.96702900  1
  P  P13  1  0.41383500  0.00000000  0.37920500  1
  P  P14  1  0.96552700  0.00000000  0.58616100  1
  P  P15  1  0.62193700  0.00000000  0.03313200  1
  Cl  Cl16  1  0.99725700  0.74670800  0.00015200  1
  Cl  Cl17  1  0.99725700  0.25329200  0.00015200  1
  O  O18  1  0.64536700  0.50000000  0.50240000  1
  O  O19  1  0.85562000  0.50000000  0.35517000  1
  O  O20  1  0.49945500  0.50000000  0.14599000  1
  O  O21  1  0.35567500  0.00000000  0.49982800  1
  O  O22  1  0.14437700  0.00000000  0.64448600  1
  O  O23  1  0.49975600  0.00000000  0.85471700  1
  O  O24  1  0.64526100  0.32354200  0.73162200  1
  O  O25  1  0.08466400  0.32184200  0.35691400  1
  O  O26  1  0.27409300  0.32220600  0.91551300  1
  O  O27  1  0.35583400  0.82235500  0.27206700  1
  O  O28  1  0.91634500  0.82225300  0.64413300  1
  O  O29  1  0.72700000  0.81933700  0.07971600  1
  O  O30  1  0.35583400  0.17764500  0.27206700  1
  O  O31  1  0.91634500  0.17774700  0.64413300  1
  O  O32  1  0.72700000  0.18066300  0.07971600  1
  O  O33  1  0.64526100  0.67645800  0.73162200  1
  O  O34  1  0.08466400  0.67815800  0.35691400  1
  O  O35  1  0.27409300  0.67779400  0.91551300  1
  O  O36  1  0.40486900  0.50000000  0.53964200  1
  O  O37  1  0.13421500  0.50000000  0.59590200  1
  O  O38  1  0.46792100  0.50000000  0.87073200  1
  O  O39  1  0.59610200  0.00000000  0.46180700  1
  O  O40  1  0.86583400  0.00000000  0.40404700  1
  O  O41  1  0.54040500  0.00000000  0.13439800  1
