# generated using pymatgen
data_Na3Y(CO3)3
_symmetry_space_group_name_H-M   'P 1'
_cell_length_a   6.56876604
_cell_length_b   6.56876604
_cell_length_c   9.98047800
_cell_angle_alpha   90.00000000
_cell_angle_beta   90.00000000
_cell_angle_gamma   114.22648641
_symmetry_Int_Tables_number   1
_chemical_formula_structural   Na3Y(CO3)3
_chemical_formula_sum   'Na6 Y2 C6 O18'
_cell_volume   392.71788547
_cell_formula_units_Z   2
loop_
 _symmetry_equiv_pos_site_id
 _symmetry_equiv_pos_as_xyz
  1  'x, y, z'
loop_
 _atom_site_type_symbol
 _atom_site_label
 _atom_site_symmetry_multiplicity
 _atom_site_fract_x
 _atom_site_fract_y
 _atom_site_fract_z
 _atom_site_occupancy
  C  C0  1  0.21441800  0.23835200  0.75000000  1
  C  C1  1  0.23835200  0.21441800  0.25000000  1
  C  C2  1  0.88020700  0.46694800  0.99879000  1
  C  C3  1  0.46694800  0.88020700  0.00121000  1
  C  C4  1  0.88020700  0.46694800  0.50121000  1
  C  C5  1  0.46694800  0.88020700  0.49879000  1
  Na  Na6  1  0.59508400  0.63187100  0.75000000  1
  Na  Na7  1  0.63187100  0.59508400  0.25000000  1
  Na  Na8  1  0.20311000  0.79445300  0.75000000  1
  Na  Na9  1  0.79445300  0.20311000  0.25000000  1
  Na  Na10  1  0.93131500  0.93131500  0.00000000  1
  Na  Na11  1  0.93131500  0.93131500  0.50000000  1
  O  O12  1  0.40826900  0.23238100  0.75000000  1
  O  O13  1  0.23238100  0.40826900  0.25000000  1
  O  O14  1  0.18987200  0.42417800  0.75000000  1
  O  O15  1  0.42417800  0.18987200  0.25000000  1
  O  O16  1  0.89380400  0.27762400  0.98779300  1
  O  O17  1  0.27762400  0.89380400  0.01220700  1
  O  O18  1  0.89380400  0.27762400  0.51220700  1
  O  O19  1  0.27762400  0.89380400  0.48779300  1
  O  O20  1  0.03034500  0.05232400  0.75000000  1
  O  O21  1  0.05232400  0.03034500  0.25000000  1
  O  O22  1  0.56622400  0.90114500  0.88660300  1
  O  O23  1  0.90114500  0.56622400  0.11339700  1
  O  O24  1  0.56622400  0.90114500  0.61339700  1
  O  O25  1  0.90114500  0.56622400  0.38660300  1
  O  O26  1  0.83882000  0.55448700  0.89020800  1
  O  O27  1  0.55448700  0.83882000  0.10979200  1
  O  O28  1  0.83882000  0.55448700  0.60979200  1
  O  O29  1  0.55448700  0.83882000  0.39020800  1
  Y  Y30  1  0.77374400  0.22858800  0.75000000  1
  Y  Y31  1  0.22858800  0.77374400  0.25000000  1
