# generated using pymatgen
data_NaSbCSO7
_symmetry_space_group_name_H-M   'P 1'
_cell_length_a   5.74947041
_cell_length_b   6.65382874
_cell_length_c   9.43448266
_cell_angle_alpha   90.00000000
_cell_angle_beta   93.73096593
_cell_angle_gamma   90.00000000
_symmetry_Int_Tables_number   1
_chemical_formula_structural   NaSbCSO7
_chemical_formula_sum   'Na2 Sb2 C2 S2 O14'
_cell_volume   360.16054073
_cell_formula_units_Z   2
loop_
 _symmetry_equiv_pos_site_id
 _symmetry_equiv_pos_as_xyz
  1  'x, y, z'
loop_
 _atom_site_type_symbol
 _atom_site_label
 _atom_site_symmetry_multiplicity
 _atom_site_fract_x
 _atom_site_fract_y
 _atom_site_fract_z
 _atom_site_occupancy
  Na  Na0  1  0.25476361  0.50941102  0.19855981  1
  Na  Na1  1  0.74523639  0.00941102  0.80144019  1
  Sb  Sb2  1  0.80019937  0.26235274  0.37168285  1
  Sb  Sb3  1  0.19980063  0.76235274  0.62831715  1
  C  C4  1  0.75419533  0.26052974  0.10188024  1
  C  C5  1  0.24580467  0.76052974  0.89811976  1
  S  S6  1  0.74241892  0.73926088  0.40217746  1
  S  S7  1  0.25758108  0.23926088  0.59782254  1
  O  O8  1  0.26092484  0.74025069  0.02684624  1
  O  O9  1  0.95743792  0.24954414  0.18316863  1
  O  O10  1  0.57747394  0.29387919  0.18413446  1
  O  O11  1  0.78617628  0.93024203  0.32687055  1
  O  O12  1  0.90941244  0.58753861  0.34534427  1
  O  O13  1  0.19700839  0.26171937  0.44122477  1
  O  O14  1  0.50377220  0.66742160  0.37910443  1
  O  O15  1  0.49622780  0.16742160  0.62089557  1
  O  O16  1  0.80299161  0.76171937  0.55877523  1
  O  O17  1  0.09058756  0.08753861  0.65465573  1
  O  O18  1  0.21382372  0.43024203  0.67312945  1
  O  O19  1  0.42252606  0.79387919  0.81586554  1
  O  O20  1  0.04256208  0.74954414  0.81683137  1
  O  O21  1  0.73907516  0.24025069  0.97315376  1
