# generated using pymatgen
data_TaGaO4
_symmetry_space_group_name_H-M   'P 1'
_cell_length_a   4.64656347
_cell_length_b   4.94739187
_cell_length_c   5.56652418
_cell_angle_alpha   90.00000000
_cell_angle_beta   90.00000000
_cell_angle_gamma   90.00000000
_symmetry_Int_Tables_number   1
_chemical_formula_structural   TaGaO4
_chemical_formula_sum   'Ta2 Ga2 O8'
_cell_volume   127.96531933
_cell_formula_units_Z   2
loop_
 _symmetry_equiv_pos_site_id
 _symmetry_equiv_pos_as_xyz
  1  'x, y, z'
loop_
 _atom_site_type_symbol
 _atom_site_label
 _atom_site_symmetry_multiplicity
 _atom_site_fract_x
 _atom_site_fract_y
 _atom_site_fract_z
 _atom_site_occupancy
  Ta  Ta0  1  0.00000000  0.00000000  0.18352132  1
  Ta  Ta1  1  0.50000000  0.00000000  0.68352132  1
  Ga  Ga2  1  0.00000000  0.50000000  0.82799175  1
  Ga  Ga3  1  0.50000000  0.50000000  0.32799175  1
  O  O4  1  0.22385140  0.82939246  0.88645285  1
  O  O5  1  0.22937882  0.32208232  0.10779062  1
  O  O6  1  0.27062118  0.32208232  0.60779062  1
  O  O7  1  0.27614860  0.82939246  0.38645285  1
  O  O8  1  0.72937882  0.67791768  0.60779062  1
  O  O9  1  0.72385140  0.17060754  0.38645285  1
  O  O10  1  0.77614860  0.17060754  0.88645285  1
  O  O11  1  0.77062118  0.67791768  0.10779062  1
