# generated using pymatgen
data_BePH4NO4
_symmetry_space_group_name_H-M   'P 1'
_cell_length_a   8.71960000
_cell_length_b   8.59190000
_cell_length_c   4.96610000
_cell_angle_alpha   90.00000000
_cell_angle_beta   90.00000000
_cell_angle_gamma   90.00000000
_symmetry_Int_Tables_number   1
_chemical_formula_structural   BePH4NO4
_chemical_formula_sum   'Be4 P4 H16 N4 O16'
_cell_volume   372.04993833
_cell_formula_units_Z   4
loop_
 _symmetry_equiv_pos_site_id
 _symmetry_equiv_pos_as_xyz
  1  'x, y, z'
loop_
 _atom_site_type_symbol
 _atom_site_label
 _atom_site_symmetry_multiplicity
 _atom_site_fract_x
 _atom_site_fract_y
 _atom_site_fract_z
 _atom_site_occupancy
  Be  Be0  1  0.32600000  0.59240000  0.65110000  1.0
  Be  Be1  1  0.17400000  0.09240000  0.15110000  1.0
  Be  Be2  1  0.82600000  0.90760000  0.65110000  1.0
  Be  Be3  1  0.67400000  0.40760000  0.15110000  1.0
  P  P4  1  0.68340000  0.58540000  0.65900000  1.0
  P  P5  1  0.31660000  0.41460000  0.15900000  1.0
  P  P6  1  0.18340000  0.91460000  0.65900000  1.0
  P  P7  1  0.81660000  0.08540000  0.15900000  1.0
  H  H8  1  0.99200000  0.70670000  0.31800000  1.0
  H  H9  1  0.00800000  0.29330000  0.81800000  1.0
  H  H10  1  0.49200000  0.79330000  0.31800000  1.0
  H  H11  1  0.50800000  0.20670000  0.81800000  1.0
  H  H12  1  0.49090000  0.71050000  0.03750000  1.0
  H  H13  1  0.50910000  0.28950000  0.53750000  1.0
  H  H14  1  0.09190000  0.64380000  0.12930000  1.0
  H  H15  1  0.90810000  0.35620000  0.62930000  1.0
  H  H16  1  0.59190000  0.85620000  0.12930000  1.0
  H  H17  1  0.40810000  0.14380000  0.62930000  1.0
  H  H18  1  0.90860000  0.62730000  0.10900000  1.0
  H  H19  1  0.00910000  0.21050000  0.53750000  1.0
  H  H20  1  0.40860000  0.87270000  0.10900000  1.0
  H  H21  1  0.59140000  0.12730000  0.60900000  1.0
  H  H22  1  0.99090000  0.78950000  0.03750000  1.0
  H  H23  1  0.09140000  0.37270000  0.60900000  1.0
  N  N24  1  0.99520000  0.69200000  0.15340000  1.0
  N  N25  1  0.00480000  0.30800000  0.65340000  1.0
  N  N26  1  0.50480000  0.19200000  0.65340000  1.0
  N  N27  1  0.49520000  0.80800000  0.15340000  1.0
  O  O28  1  0.76740000  0.95790000  0.95690000  1.0
  O  O29  1  0.26500000  0.46400000  0.44110000  1.0
  O  O30  1  0.26160000  0.76300000  0.58090000  1.0
  O  O31  1  0.76160000  0.73700000  0.58090000  1.0
  O  O32  1  0.23500000  0.96400000  0.94110000  1.0
  O  O33  1  0.76500000  0.03600000  0.44110000  1.0
  O  O34  1  0.51080000  0.60760000  0.65210000  1.0
  O  O35  1  0.48920000  0.39240000  0.15210000  1.0
  O  O36  1  0.01080000  0.89240000  0.65210000  1.0
  O  O37  1  0.98920000  0.10760000  0.15210000  1.0
  O  O38  1  0.23840000  0.26300000  0.08090000  1.0
  O  O39  1  0.73500000  0.53600000  0.94110000  1.0
  O  O40  1  0.26740000  0.54210000  0.95690000  1.0
  O  O41  1  0.23260000  0.04210000  0.45690000  1.0
  O  O42  1  0.73260000  0.45790000  0.45690000  1.0
  O  O43  1  0.73840000  0.23700000  0.08090000  1.0
