# generated using pymatgen
data_Li2SiGeS4
_symmetry_space_group_name_H-M   'P 1'
_cell_length_a   5.70320577
_cell_length_b   6.05441756
_cell_length_c   6.05441756
_cell_angle_alpha   94.43140102
_cell_angle_beta   116.03980215
_cell_angle_gamma   116.03980215
_symmetry_Int_Tables_number   1
_chemical_formula_structural   Li2SiGeS4
_chemical_formula_sum   'Li2 Si1 Ge1 S4'
_cell_volume   159.05005014
_cell_formula_units_Z   1
loop_
 _symmetry_equiv_pos_site_id
 _symmetry_equiv_pos_as_xyz
  1  'x, y, z'
loop_
 _atom_site_type_symbol
 _atom_site_label
 _atom_site_symmetry_multiplicity
 _atom_site_fract_x
 _atom_site_fract_y
 _atom_site_fract_z
 _atom_site_occupancy
  Ge  Ge0  1  0.06547219  0.08617926  0.08617926  1
  Li  Li1  1  0.50883564  0.76347524  0.24904892  1
  Li  Li2  1  0.50883564  0.24904892  0.76347524  1
  S  S3  1  0.55423655  0.15812574  0.15812574  1
  S  S4  1  0.02590847  0.84522472  0.45068564  1
  S  S5  1  0.02590847  0.45068564  0.84522472  1
  S  S6  1  0.33395295  0.46258870  0.46258870  1
  Si  Si7  1  0.97685111  0.48466478  0.48466478  1
