# generated using pymatgen
data_NbAsO4
_symmetry_space_group_name_H-M   'P 1'
_cell_length_a   4.92176618
_cell_length_b   5.45866713
_cell_length_c   11.83243068
_cell_angle_alpha   90.00000000
_cell_angle_beta   90.00000000
_cell_angle_gamma   90.00000000
_symmetry_Int_Tables_number   1
_chemical_formula_structural   NbAsO4
_chemical_formula_sum   'Nb4 As4 O16'
_cell_volume   317.89343440
_cell_formula_units_Z   4
loop_
 _symmetry_equiv_pos_site_id
 _symmetry_equiv_pos_as_xyz
  1  'x, y, z'
loop_
 _atom_site_type_symbol
 _atom_site_label
 _atom_site_symmetry_multiplicity
 _atom_site_fract_x
 _atom_site_fract_y
 _atom_site_fract_z
 _atom_site_occupancy
  Nb  Nb0  1  0.02121972  0.89304250  0.00465364  1
  Nb  Nb1  1  0.52121972  0.60695750  0.50465364  1
  Nb  Nb2  1  0.47878028  0.39304250  0.00465364  1
  Nb  Nb3  1  0.97878028  0.10695750  0.50465364  1
  As  As4  1  0.41584985  0.93085754  0.25840452  1
  As  As5  1  0.91584985  0.56914246  0.75840452  1
  As  As6  1  0.08415015  0.43085754  0.25840452  1
  As  As7  1  0.58415015  0.06914246  0.75840452  1
  O  O8  1  0.69002414  0.92496726  0.43656642  1
  O  O9  1  0.21165688  0.84892229  0.53834100  1
  O  O10  1  0.83168166  0.86311471  0.83522692  1
  O  O11  1  0.16611325  0.83058958  0.15469550  1
  O  O12  1  0.66611325  0.66941042  0.65469550  1
  O  O13  1  0.33168166  0.63688529  0.33522692  1
  O  O14  1  0.71165688  0.65107771  0.03834100  1
  O  O15  1  0.19002414  0.57503274  0.93656642  1
  O  O16  1  0.80997586  0.42496726  0.43656642  1
  O  O17  1  0.28834312  0.34892229  0.53834100  1
  O  O18  1  0.66831834  0.36311471  0.83522692  1
  O  O19  1  0.33388675  0.33058958  0.15469550  1
  O  O20  1  0.83388675  0.16941042  0.65469550  1
  O  O21  1  0.16831834  0.13688529  0.33522692  1
  O  O22  1  0.78834312  0.15107771  0.03834100  1
  O  O23  1  0.30997586  0.07503274  0.93656642  1
