# generated using pymatgen
data_GaIBr
_symmetry_space_group_name_H-M   'P 1'
_cell_length_a   5.22829511
_cell_length_b   6.55748651
_cell_length_c   6.81133550
_cell_angle_alpha   82.35219480
_cell_angle_beta   81.40523662
_cell_angle_gamma   81.19369555
_symmetry_Int_Tables_number   1
_chemical_formula_structural   GaIBr
_chemical_formula_sum   'Ga2 I2 Br2'
_cell_volume   226.72272065
_cell_formula_units_Z   2
loop_
 _symmetry_equiv_pos_site_id
 _symmetry_equiv_pos_as_xyz
  1  'x, y, z'
loop_
 _atom_site_type_symbol
 _atom_site_label
 _atom_site_symmetry_multiplicity
 _atom_site_fract_x
 _atom_site_fract_y
 _atom_site_fract_z
 _atom_site_occupancy
  Ga  Ga0  1  0.57997136  0.92556373  0.70739032  1
  Ga  Ga1  1  0.90415254  0.07517866  0.84184400  1
  I  I2  1  0.24289046  0.77556756  0.00497078  1
  I  I3  1  0.71091210  0.66457092  0.45911118  1
  Br  Br4  1  0.24455307  0.20194511  0.57548467  1
  Br  Br5  1  0.78628348  0.32007003  0.06599906  1
