# generated using pymatgen
data_K2CdGeSe4
_symmetry_space_group_name_H-M   'P 1'
_cell_length_a   6.55425471
_cell_length_b   6.55425471
_cell_length_c   6.55425471
_cell_angle_alpha   105.54865153
_cell_angle_beta   105.54865153
_cell_angle_gamma   117.63821092
_symmetry_Int_Tables_number   1
_chemical_formula_structural   K2CdGeSe4
_chemical_formula_sum   'K2 Cd1 Ge1 Se4'
_cell_volume   213.39816292
_cell_formula_units_Z   1
loop_
 _symmetry_equiv_pos_site_id
 _symmetry_equiv_pos_as_xyz
  1  'x, y, z'
loop_
 _atom_site_type_symbol
 _atom_site_label
 _atom_site_symmetry_multiplicity
 _atom_site_fract_x
 _atom_site_fract_y
 _atom_site_fract_z
 _atom_site_occupancy
  Cd  Cd0  1  0.50000000  0.50000000  0.00000000  1
  Ge  Ge1  1  0.00000000  0.00000000  0.00000000  1
  K  K2  1  0.00000000  0.50000000  0.50000000  1
  K  K3  1  0.50000000  0.00000000  0.50000000  1
  Se  Se4  1  0.05156531  0.05156531  0.66566018  1
  Se  Se5  1  0.38590513  0.38590513  0.33433982  1
  Se  Se6  1  0.61409487  0.94843469  0.00000000  1
  Se  Se7  1  0.94843469  0.61409487  0.00000000  1
