# generated using pymatgen
data_K3P2H(O3F)2
_symmetry_space_group_name_H-M   'P 1'
_cell_length_a   7.17173948
_cell_length_b   7.17173948
_cell_length_c   9.44805201
_cell_angle_alpha   102.05189379
_cell_angle_beta   102.05189379
_cell_angle_gamma   111.35332201
_symmetry_Int_Tables_number   1
_chemical_formula_structural   K3P2H(O3F)2
_chemical_formula_sum   'K6 P4 H2 O12 F4'
_cell_volume   420.41714529
_cell_formula_units_Z   2
loop_
 _symmetry_equiv_pos_site_id
 _symmetry_equiv_pos_as_xyz
  1  'x, y, z'
loop_
 _atom_site_type_symbol
 _atom_site_label
 _atom_site_symmetry_multiplicity
 _atom_site_fract_x
 _atom_site_fract_y
 _atom_site_fract_z
 _atom_site_occupancy
  F  F0  1  0.53157100  0.81110700  0.92436300  1
  F  F1  1  0.19498500  0.46525900  0.57328500  1
  F  F2  1  0.81110700  0.53157100  0.42436300  1
  F  F3  1  0.46525900  0.19498500  0.07328500  1
  H  H4  1  0.00535000  0.00143900  0.49900000  1
  H  H5  1  0.00143900  0.00535000  0.99900000  1
  K  K6  1  0.14000400  0.85119400  0.74594300  1
  K  K7  1  0.46250600  0.72132100  0.43668300  1
  K  K8  1  0.27713400  0.53762200  0.05996400  1
  K  K9  1  0.72132100  0.46250600  0.93668300  1
  K  K10  1  0.53762200  0.27713400  0.55996400  1
  K  K11  1  0.85119400  0.14000400  0.24594300  1
  O  O12  1  0.11302500  0.93398100  0.05356700  1
  O  O13  1  0.43979700  0.99290500  0.25893700  1
  O  O14  1  0.07626000  0.88191600  0.44149200  1
  O  O15  1  0.00284300  0.55138900  0.23172800  1
  O  O16  1  0.72078600  0.69901300  0.22855100  1
  O  O17  1  0.69901300  0.72078600  0.72855100  1
  O  O18  1  0.30226900  0.28334700  0.27225500  1
  O  O19  1  0.28334700  0.30226900  0.77225500  1
  O  O20  1  0.99290500  0.43979700  0.75893700  1
  O  O21  1  0.93398100  0.11302500  0.55356700  1
  O  O22  1  0.55138900  0.00284300  0.73172800  1
  O  O23  1  0.88191600  0.07626000  0.94149200  1
  P  P24  1  0.67465400  0.90743200  0.81738200  1
  P  P25  1  0.90743200  0.67465400  0.31738200  1
  P  P26  1  0.09754000  0.32335300  0.67885100  1
  P  P27  1  0.32335300  0.09754000  0.17885100  1
