# generated using pymatgen
data_RbPH2SeO3
_symmetry_space_group_name_H-M   'P 1'
_cell_length_a   4.59677717
_cell_length_b   4.59677717
_cell_length_c   6.21558676
_cell_angle_alpha   77.85535329
_cell_angle_beta   77.85535329
_cell_angle_gamma   88.13407547
_symmetry_Int_Tables_number   1
_chemical_formula_structural   RbPH2SeO3
_chemical_formula_sum   'Rb1 P1 H2 Se1 O3'
_cell_volume   125.51519224
_cell_formula_units_Z   1
loop_
 _symmetry_equiv_pos_site_id
 _symmetry_equiv_pos_as_xyz
  1  'x, y, z'
loop_
 _atom_site_type_symbol
 _atom_site_label
 _atom_site_symmetry_multiplicity
 _atom_site_fract_x
 _atom_site_fract_y
 _atom_site_fract_z
 _atom_site_occupancy
  H  H0  1  0.83303749  0.20651415  0.81079565  1
  H  H1  1  0.20651415  0.83303749  0.81079565  1
  O  O2  1  0.11020217  0.11020217  0.88171121  1
  O  O3  1  0.64808971  0.25875526  0.73442697  1
  O  O4  1  0.25875526  0.64808971  0.73442697  1
  P  P5  1  0.34512850  0.34512850  0.88102517  1
  Rb  Rb6  1  0.84186952  0.84186952  0.39756175  1
  Se  Se7  1  0.39057421  0.39057421  0.20726764  1
