# generated using pymatgen
data_Ca5P3HO13
_symmetry_space_group_name_H-M   'P 1'
_cell_length_a   9.41799989
_cell_length_b   9.41799989
_cell_length_c   9.41800000
_cell_angle_alpha   90.00000000
_cell_angle_beta   90.00000000
_cell_angle_gamma   120.00000000
_symmetry_Int_Tables_number   1
_chemical_formula_structural   Ca5P3HO13
_chemical_formula_sum   'Ca10 P6 H2 O26'
_cell_volume   723.44693308
_cell_formula_units_Z   2
loop_
 _symmetry_equiv_pos_site_id
 _symmetry_equiv_pos_as_xyz
  1  'x, y, z'
loop_
 _atom_site_type_symbol
 _atom_site_label
 _atom_site_symmetry_multiplicity
 _atom_site_fract_x
 _atom_site_fract_y
 _atom_site_fract_z
 _atom_site_occupancy
  Ca  Ca0  1  0.24590000  0.99250000  0.25000000  1.0
  Ca  Ca1  1  0.00750000  0.25340000  0.25000000  1.0
  Ca  Ca2  1  0.33333333  0.66666667  0.00130000  1.0
  Ca  Ca3  1  0.33333333  0.66666667  0.49870000  1.0
  Ca  Ca4  1  0.25340000  0.24590000  0.75000000  1.0
  Ca  Ca5  1  0.74660000  0.75410000  0.25000000  1.0
  Ca  Ca6  1  0.66666667  0.33333333  0.50130000  1.0
  Ca  Ca7  1  0.66666667  0.33333333  0.99870000  1.0
  Ca  Ca8  1  0.99250000  0.74660000  0.75000000  1.0
  Ca  Ca9  1  0.75410000  0.00750000  0.75000000  1.0
  P  P10  1  0.02930000  0.39840000  0.75000000  1.0
  P  P11  1  0.36910000  0.97070000  0.75000000  1.0
  P  P12  1  0.39840000  0.36910000  0.25000000  1.0
  P  P13  1  0.60160000  0.63090000  0.75000000  1.0
  P  P14  1  0.63090000  0.02930000  0.25000000  1.0
  P  P15  1  0.97070000  0.60160000  0.25000000  1.0
  H  H16  1  0.00000000  0.00000000  0.44500000  1.0
  H  H17  1  0.00000000  0.00000000  0.94500000  1.0
  O  O18  1  0.25810000  0.91420000  0.92960000  1.0
  O  O19  1  0.25810000  0.91420000  0.57040000  1.0
  O  O20  1  0.15660000  0.67240000  0.25000000  1.0
  O  O21  1  0.12210000  0.58690000  0.75000000  1.0
  O  O22  1  0.08580000  0.34390000  0.57040000  1.0
  O  O23  1  0.08580000  0.34390000  0.92960000  1.0
  O  O24  1  0.46480000  0.87790000  0.75000000  1.0
  O  O25  1  0.32760000  0.48420000  0.25000000  1.0
  O  O26  1  0.51580000  0.84340000  0.25000000  1.0
  O  O27  1  0.41310000  0.53520000  0.75000000  1.0
  O  O28  1  0.34390000  0.25810000  0.42960000  1.0
  O  O29  1  0.34390000  0.25810000  0.07040000  1.0
  O  O30  1  0.65610000  0.74190000  0.92960000  1.0
  O  O31  1  0.65610000  0.74190000  0.57040000  1.0
  O  O32  1  0.58690000  0.46480000  0.25000000  1.0
  O  O33  1  0.48420000  0.15660000  0.75000000  1.0
  O  O34  1  0.67240000  0.51580000  0.75000000  1.0
  O  O35  1  0.53520000  0.12210000  0.25000000  1.0
  O  O36  1  0.91420000  0.65610000  0.07040000  1.0
  O  O37  1  0.91420000  0.65610000  0.42960000  1.0
  O  O38  1  0.87790000  0.41310000  0.25000000  1.0
  O  O39  1  0.84340000  0.32760000  0.75000000  1.0
  O  O40  1  0.74190000  0.08580000  0.42960000  1.0
  O  O41  1  0.74190000  0.08580000  0.07040000  1.0
  O  O42  1  0.00000000  0.00000000  0.30530000  1.0
  O  O43  1  0.00000000  0.00000000  0.80530000  1.0
