# generated using pymatgen
data_CsGaP2S7
_symmetry_space_group_name_H-M   'P 1'
_cell_length_a   6.43615638
_cell_length_b   6.43615638
_cell_length_c   6.81694285
_cell_angle_alpha   94.94592281
_cell_angle_beta   94.94592281
_cell_angle_gamma   96.13596618
_symmetry_Int_Tables_number   1
_chemical_formula_structural   CsGaP2S7
_chemical_formula_sum   'Cs1 Ga1 P2 S7'
_cell_volume   278.42145165
_cell_formula_units_Z   1
loop_
 _symmetry_equiv_pos_site_id
 _symmetry_equiv_pos_as_xyz
  1  'x, y, z'
loop_
 _atom_site_type_symbol
 _atom_site_label
 _atom_site_symmetry_multiplicity
 _atom_site_fract_x
 _atom_site_fract_y
 _atom_site_fract_z
 _atom_site_occupancy
  Cs  Cs0  1  0.92470940  0.07529060  0.50000000  1
  Ga  Ga1  1  0.50564897  0.49435103  0.00000000  1
  P  P2  1  0.36016459  0.04055636  0.07376148  1
  P  P3  1  0.95944364  0.63983541  0.92623852  1
  S  S4  1  0.02770872  0.97229128  0.00000000  1
  S  S5  1  0.19149863  0.52671804  0.78179575  1
  S  S6  1  0.37349119  0.30111695  0.26700424  1
  S  S7  1  0.69888305  0.62650881  0.73299576  1
  S  S8  1  0.49805825  0.13138840  0.83491849  1
  S  S9  1  0.86861160  0.50194175  0.16508151  1
  S  S10  1  0.47328196  0.80850137  0.21820425  1
