# generated using pymatgen
data_Mg2Al2SiH4O9
_symmetry_space_group_name_H-M   'P 1'
_cell_length_a   5.35783393
_cell_length_b   5.36121987
_cell_length_c   14.12164036
_cell_angle_alpha   89.73205643
_cell_angle_beta   89.70670634
_cell_angle_gamma   60.10125882
_symmetry_Int_Tables_number   1
_chemical_formula_structural   Mg2Al2SiH4O9
_chemical_formula_sum   'Mg4 Al4 Si2 H8 O18'
_cell_volume   351.64454093
_cell_formula_units_Z   2
loop_
 _symmetry_equiv_pos_site_id
 _symmetry_equiv_pos_as_xyz
  1  'x, y, z'
loop_
 _atom_site_type_symbol
 _atom_site_label
 _atom_site_symmetry_multiplicity
 _atom_site_fract_x
 _atom_site_fract_y
 _atom_site_fract_z
 _atom_site_occupancy
  Mg  Mg0  1  0.68358700  0.31682500  0.73627000  1
  Mg  Mg1  1  0.33475500  0.66890300  0.23698000  1
  Mg  Mg2  1  0.35276900  0.98808200  0.73700200  1
  Mg  Mg3  1  0.66493000  0.99789800  0.23765700  1
  Al  Al4  1  0.34595400  0.32012200  0.54045300  1
  Al  Al5  1  0.67509700  0.67089900  0.04084000  1
  Al  Al6  1  0.02635400  0.64419500  0.73569300  1
  Al  Al7  1  0.99148200  0.34167900  0.23581800  1
  Si  Si8  1  0.01639500  0.97697000  0.53824000  1
  Si  Si9  1  0.00500400  0.01381400  0.03851100  1
  H  H10  1  0.31725700  0.67783000  0.87501700  1
  H  H11  1  0.28496100  0.03718400  0.37470200  1
  H  H12  1  0.30494200  0.33511100  0.09558900  1
  H  H13  1  0.72199400  0.65083500  0.59510100  1
  H  H14  1  0.01912700  0.64363400  0.37537100  1
  H  H15  1  0.70013900  0.30785400  0.37541400  1
  H  H16  1  0.99516600  0.34201100  0.87496800  1
  H  H17  1  0.73237300  0.94879700  0.87431400  1
  O  O18  1  0.71127800  0.65192300  0.66387200  1
  O  O19  1  0.99821800  0.02858400  0.15665400  1
  O  O20  1  0.29847700  0.03045000  0.30467200  1
  O  O21  1  0.32602500  0.77845500  0.00049500  1
  O  O22  1  0.00087200  0.64513600  0.30550400  1
  O  O23  1  0.33020400  0.34180300  0.66501500  1
  O  O24  1  0.77607700  0.91932000  0.00071500  1
  O  O25  1  0.68952700  0.32909600  0.30576300  1
  O  O26  1  0.32752400  0.65549000  0.80543900  1
  O  O27  1  0.30940600  0.33521700  0.16444800  1
  O  O28  1  0.68918400  0.64604300  0.16544400  1
  O  O29  1  0.02152100  0.95956400  0.65628200  1
  O  O30  1  0.10067600  0.66203700  0.49450700  1
  O  O31  1  0.71777100  0.95446300  0.80434300  1
  O  O32  1  0.24717800  0.07072500  0.50049000  1
  O  O33  1  0.69608600  0.21510300  0.50064900  1
  O  O34  1  0.91898900  0.32976300  0.99465000  1
  O  O35  1  0.01529900  0.33948600  0.80501600  1
