# generated using pymatgen
data_AgSO3F
_symmetry_space_group_name_H-M   'P 1'
_cell_length_a   5.48741936
_cell_length_b   8.32893700
_cell_length_c   7.82550455
_cell_angle_alpha   90.00000000
_cell_angle_beta   94.34685964
_cell_angle_gamma   90.00000000
_symmetry_Int_Tables_number   1
_chemical_formula_structural   AgSO3F
_chemical_formula_sum   'Ag4 S4 O12 F4'
_cell_volume   356.63094067
_cell_formula_units_Z   4
loop_
 _symmetry_equiv_pos_site_id
 _symmetry_equiv_pos_as_xyz
  1  'x, y, z'
loop_
 _atom_site_type_symbol
 _atom_site_label
 _atom_site_symmetry_multiplicity
 _atom_site_fract_x
 _atom_site_fract_y
 _atom_site_fract_z
 _atom_site_occupancy
  Ag  Ag0  1  0.78995500  0.01555900  0.79579600  1
  Ag  Ag1  1  0.21004500  0.51555900  0.20420400  1
  Ag  Ag2  1  0.21073300  0.98896200  0.21192000  1
  Ag  Ag3  1  0.78926700  0.48896200  0.78808000  1
  S  S4  1  0.27218600  0.23446700  0.65186500  1
  S  S5  1  0.72781400  0.73446700  0.34813500  1
  S  S6  1  0.31706100  0.75083500  0.82459800  1
  S  S7  1  0.68293900  0.25083500  0.17540200  1
  O  O8  1  0.21134300  0.89893200  0.88505100  1
  O  O9  1  0.78865700  0.39893200  0.11494900  1
  O  O10  1  0.78636900  0.10219200  0.11418600  1
  O  O11  1  0.21363100  0.60219200  0.88581400  1
  O  O12  1  0.50725700  0.25283100  0.75205400  1
  O  O13  1  0.49274300  0.75283100  0.24794600  1
  O  O14  1  0.05868400  0.25258400  0.75156500  1
  O  O15  1  0.94131600  0.75258400  0.24843500  1
  O  O16  1  0.58486600  0.75188900  0.82845100  1
  O  O17  1  0.41513400  0.25188900  0.17154900  1
  O  O18  1  0.25981300  0.10489700  0.52917000  1
  O  O19  1  0.74018700  0.60489700  0.47083000  1
  F  F20  1  0.23411800  0.74972800  0.62322500  1
  F  F21  1  0.76588200  0.24972800  0.37677500  1
  F  F22  1  0.74000000  0.89712400  0.46479200  1
  F  F23  1  0.26000000  0.39712400  0.53520800  1
