# generated using pymatgen
data_K3Ta3Si2O13
_symmetry_space_group_name_H-M   'P 1'
_cell_length_a   9.06600000
_cell_length_b   9.06600000
_cell_length_c   7.87300000
_cell_angle_alpha   90.00000000
_cell_angle_beta   90.00000000
_cell_angle_gamma   120.00000000
_symmetry_Int_Tables_number   1
_chemical_formula_structural   K3Ta3Si2O13
_chemical_formula_sum   'K6 Ta6 Si4 O26'
_cell_volume   560.40540147
_cell_formula_units_Z   2
loop_
 _symmetry_equiv_pos_site_id
 _symmetry_equiv_pos_as_xyz
  1  'x, y, z'
loop_
 _atom_site_type_symbol
 _atom_site_label
 _atom_site_symmetry_multiplicity
 _atom_site_fract_x
 _atom_site_fract_y
 _atom_site_fract_z
 _atom_site_occupancy
  K  K0  1  0.41400000  0.41400000  0.50000000  1.0
  K  K1  1  -0.00000000  0.58600000  0.50000000  1.0
  K  K2  1  0.60999999  0.00000000  0.00000000  1.0
  K  K3  1  0.39000001  0.39000001  -0.00000000  1.0
  K  K4  1  0.58600000  0.00000000  0.50000000  1.0
  K  K5  1  -0.00000000  0.60999999  0.00000000  1.0
  Ta  Ta6  1  0.23899999  0.00000000  0.24900000  1.0
  Ta  Ta7  1  -0.00000000  0.23899999  0.75100000  1.0
  Ta  Ta8  1  0.00000000  0.23899999  0.24900000  1.0
  Ta  Ta9  1  0.76100001  0.76100001  0.24900000  1.0
  Ta  Ta10  1  0.23899999  0.00000000  0.75100000  1.0
  Ta  Ta11  1  0.76100001  0.76100001  0.75100000  1.0
  Si  Si12  1  0.66666667  0.33333333  0.20800000  1.0
  Si  Si13  1  0.66666667  0.33333333  0.79200000  1.0
  Si  Si14  1  0.33333333  0.66666667  0.79200000  1.0
  Si  Si15  1  0.33333333  0.66666667  0.20800000  1.0
  O  O16  1  -0.00000000  0.24200001  0.50000000  1.0
  O  O17  1  0.75799999  0.75799999  0.50000000  1.0
  O  O18  1  0.24200001  0.00000000  0.50000000  1.0
  O  O19  1  0.50000000  0.67600000  0.28900000  1.0
  O  O20  1  0.32400000  0.82399999  0.28900000  1.0
  O  O21  1  0.17600001  0.50000000  0.28900000  1.0
  O  O22  1  0.50000000  0.17600001  0.71100000  1.0
  O  O23  1  0.17600001  0.50000000  0.71100000  1.0
  O  O24  1  0.50000000  0.67600000  0.71100000  1.0
  O  O25  1  0.32400000  0.82399999  0.71100000  1.0
  O  O26  1  0.67600000  0.50000000  0.28900000  1.0
  O  O27  1  0.82399999  0.32400000  0.28900000  1.0
  O  O28  1  0.82399999  0.32400000  0.71100000  1.0
  O  O29  1  0.67600000  0.50000000  0.71100000  1.0
  O  O30  1  0.50000000  0.17600001  0.28900000  1.0
  O  O31  1  0.81099999  0.00000000  0.74000000  1.0
  O  O32  1  0.33333333  0.66666667  0.00000000  1.0
  O  O33  1  0.66666667  0.33333333  0.00000000  1.0
  O  O34  1  0.26199999  0.00000000  -0.00000000  1.0
  O  O35  1  0.73800001  0.73800001  -0.00000000  1.0
  O  O36  1  -0.00000000  0.26199999  -0.00000000  1.0
  O  O37  1  0.81099999  0.00000000  0.26000000  1.0
  O  O38  1  0.18900001  0.18900001  0.74000000  1.0
  O  O39  1  0.00000000  0.81099999  0.74000000  1.0
  O  O40  1  -0.00000000  0.81099999  0.26000000  1.0
  O  O41  1  0.18900001  0.18900001  0.26000000  1.0
