# generated using pymatgen
data_LiB(H8O5)2
_symmetry_space_group_name_H-M   'P 1'
_cell_length_a   6.01718379
_cell_length_b   6.49944813
_cell_length_c   6.63566026
_cell_angle_alpha   118.27095425
_cell_angle_beta   90.27281075
_cell_angle_gamma   91.01581432
_symmetry_Int_Tables_number   1
_chemical_formula_structural   LiB(H8O5)2
_chemical_formula_sum   'Li1 B1 H16 O10'
_cell_volume   228.49348091
_cell_formula_units_Z   1
loop_
 _symmetry_equiv_pos_site_id
 _symmetry_equiv_pos_as_xyz
  1  'x, y, z'
loop_
 _atom_site_type_symbol
 _atom_site_label
 _atom_site_symmetry_multiplicity
 _atom_site_fract_x
 _atom_site_fract_y
 _atom_site_fract_z
 _atom_site_occupancy
  Li  Li0  1  0.28439000  0.32331300  0.66317300  1
  B  B1  1  0.70794300  0.65396400  0.33516100  1
  H  H2  1  0.55580500  0.99557500  0.01389100  1
  H  H3  1  0.77608300  0.31040300  0.24991800  1
  H  H4  1  0.70707000  0.01259900  0.54859200  1
  H  H5  1  0.78615700  0.74762600  0.08715200  1
  H  H6  1  0.04344100  0.55297300  0.52977200  1
  H  H7  1  0.04510300  0.95810900  0.44153400  1
  H  H8  1  0.04282500  0.44698400  0.02311700  1
  H  H9  1  0.38984900  0.54821800  0.18446000  1
  H  H10  1  0.29898700  0.61570700  0.51382500  1
  H  H11  1  0.29939100  0.89195600  0.38560400  1
  H  H12  1  0.77753900  0.97108200  0.88027100  1
  H  H13  1  0.19514000  0.22459700  0.97847600  1
  H  H14  1  0.22145300  0.83641400  0.86208700  1
  H  H15  1  0.21604800  0.98872800  0.14062800  1
  H  H16  1  0.67873800  0.41733400  0.83400200  1
  H  H17  1  0.67974000  0.39081800  0.58135900  1
  O  O18  1  0.72213100  0.00741000  0.03232000  1
  O  O19  1  0.61351300  0.32421300  0.67658200  1
  O  O20  1  0.26999300  0.98696600  0.99692700  1
  O  O21  1  0.45922200  0.66292900  0.33220700  1
  O  O22  1  0.18810300  0.37031700  0.96292900  1
  O  O23  1  0.19055200  0.58512300  0.61204100  1
  O  O24  1  0.18912000  0.01473500  0.40737200  1
  O  O25  1  0.79561600  0.60566900  0.10516700  1
  O  O26  1  0.78888100  0.46757400  0.38409600  1
  O  O27  1  0.79556800  0.87566300  0.52133500  1
