# generated using pymatgen
data_KH5O3
_symmetry_space_group_name_H-M   'P 1'
_cell_length_a   7.05661319
_cell_length_b   7.05661319
_cell_length_c   8.34422135
_cell_angle_alpha   114.66117430
_cell_angle_beta   114.66117430
_cell_angle_gamma   90.48841278
_symmetry_Int_Tables_number   1
_chemical_formula_structural   KH5O3
_chemical_formula_sum   'K4 H20 O12'
_cell_volume   334.67331572
_cell_formula_units_Z   4
loop_
 _symmetry_equiv_pos_site_id
 _symmetry_equiv_pos_as_xyz
  1  'x, y, z'
loop_
 _atom_site_type_symbol
 _atom_site_label
 _atom_site_symmetry_multiplicity
 _atom_site_fract_x
 _atom_site_fract_y
 _atom_site_fract_z
 _atom_site_occupancy
  H  H0  1  0.09190912  0.44707337  0.08480449  1
  H  H1  1  0.09767287  0.93338423  0.10375337  1
  H  H2  1  0.06661577  0.90232713  0.89624663  1
  H  H3  1  0.06800299  0.22418897  0.89977069  1
  H  H4  1  0.01019735  0.21001809  0.24620974  1
  H  H5  1  0.28711488  0.98835408  0.74904577  1
  H  H6  1  0.25644491  0.11292034  0.41496822  1
  H  H7  1  0.24260263  0.58133702  0.39631804  1
  H  H8  1  0.41787942  0.07584716  0.60067458  1
  H  H9  1  0.41866298  0.75739737  0.60368196  1
  H  H10  1  0.55292663  0.90809088  0.91519551  1
  H  H11  1  0.54892235  0.24311148  0.91454061  1
  H  H12  1  0.75688852  0.45107765  0.08545939  1
  H  H13  1  0.77581103  0.93199701  0.10022931  1
  H  H14  1  0.01164592  0.71288512  0.25095423  1
  H  H15  1  0.78998191  0.98980265  0.75379026  1
  H  H16  1  0.88707966  0.74355509  0.58503178  1
  H  H17  1  0.88409608  0.07892604  0.58576214  1
  H  H18  1  0.92107396  0.11590392  0.41423786  1
  H  H19  1  0.92415284  0.58212058  0.39932542  1
  K  K20  1  0.24566289  0.49308957  0.74400697  1
  K  K21  1  0.50073179  0.24880757  0.24448959  1
  K  K22  1  0.50691043  0.75433711  0.25599303  1
  K  K23  1  0.75119243  0.49926821  0.75551041  1
  O  O24  1  0.14716471  0.85283529  0.00000000  1
  O  O25  1  0.15839122  0.37513575  0.99329026  1
  O  O26  1  0.01632421  0.07909159  0.26042594  1
  O  O27  1  0.43140234  0.99503089  0.76135486  1
  O  O28  1  0.59593338  0.40406662  0.00000000  1
  O  O29  1  0.62486425  0.84160878  0.00670974  1
  O  O30  1  0.41428117  0.13388728  0.50702413  1
  O  O31  1  0.39552875  0.60447125  0.50000000  1
  O  O32  1  0.00496911  0.56859766  0.23864514  1
  O  O33  1  0.92090841  0.98367579  0.73957406  1
  O  O34  1  0.86611272  0.58571883  0.49297587  1
  O  O35  1  0.84554035  0.15445965  0.50000000  1
