# generated using pymatgen
data_CsTi3AlO8
_symmetry_space_group_name_H-M   'P 1'
_cell_length_a   2.99789773
_cell_length_b   7.25424198
_cell_length_c   7.29662416
_cell_angle_alpha   87.39581763
_cell_angle_beta   78.15368154
_cell_angle_gamma   78.07816264
_symmetry_Int_Tables_number   1
_chemical_formula_structural   CsTi3AlO8
_chemical_formula_sum   'Cs1 Ti3 Al1 O8'
_cell_volume   151.95287657
_cell_formula_units_Z   1
loop_
 _symmetry_equiv_pos_site_id
 _symmetry_equiv_pos_as_xyz
  1  'x, y, z'
loop_
 _atom_site_type_symbol
 _atom_site_label
 _atom_site_symmetry_multiplicity
 _atom_site_fract_x
 _atom_site_fract_y
 _atom_site_fract_z
 _atom_site_occupancy
  Cs  Cs0  1  0.01767601  0.00343486  0.00407007  1
  Ti  Ti1  1  0.18290033  0.50598134  0.16887560  1
  Ti  Ti2  1  0.36115358  0.80542064  0.51619926  1
  Ti  Ti3  1  0.67012783  0.18612785  0.49644914  1
  Al  Al4  1  0.86835493  0.49008787  0.81513276  1
  O  O5  1  0.69122415  0.36903550  0.29112945  1
  O  O6  1  0.35556599  0.62463191  0.70630216  1
  O  O7  1  0.05440591  0.30126665  0.63158316  1
  O  O8  1  0.98229823  0.70791739  0.36972872  1
  O  O9  1  0.67997890  0.63654241  0.04573491  1
  O  O10  1  0.36528513  0.36701974  0.94468229  1
  O  O11  1  0.30833690  0.05532787  0.37069299  1
  O  O12  1  0.72769112  0.94720596  0.63941949  1
