# generated using pymatgen
data_BaSrY4O8
_symmetry_space_group_name_H-M   'P 1'
_cell_length_a   3.46597100
_cell_length_b   10.34116800
_cell_length_c   12.14261900
_cell_angle_alpha   90.00000000
_cell_angle_beta   90.00000000
_cell_angle_gamma   90.00000000
_symmetry_Int_Tables_number   1
_chemical_formula_structural   BaSrY4O8
_chemical_formula_sum   'Ba2 Sr2 Y8 O16'
_cell_volume   435.21803780
_cell_formula_units_Z   2
loop_
 _symmetry_equiv_pos_site_id
 _symmetry_equiv_pos_as_xyz
  1  'x, y, z'
loop_
 _atom_site_type_symbol
 _atom_site_label
 _atom_site_symmetry_multiplicity
 _atom_site_fract_x
 _atom_site_fract_y
 _atom_site_fract_z
 _atom_site_occupancy
  Ba  Ba0  1  0.50000000  0.74674200  0.60084800  1
  Ba  Ba1  1  0.50000000  0.24674200  0.39915200  1
  Sr  Sr2  1  0.00000000  0.25379100  0.89829300  1
  Sr  Sr3  1  0.00000000  0.75379100  0.10170700  1
  Y  Y4  1  0.50000000  0.07691900  0.13702100  1
  Y  Y5  1  0.50000000  0.57691900  0.86297900  1
  Y  Y6  1  0.00000000  0.92063300  0.35657900  1
  Y  Y7  1  0.00000000  0.42063300  0.64342100  1
  Y  Y8  1  0.50000000  0.07591000  0.64225900  1
  Y  Y9  1  0.50000000  0.57591000  0.35774100  1
  Y  Y10  1  0.00000000  0.92699200  0.86522600  1
  Y  Y11  1  0.00000000  0.42699200  0.13477400  1
  O  O12  1  0.50000000  0.29013000  0.07916900  1
  O  O13  1  0.50000000  0.79013000  0.92083100  1
  O  O14  1  0.00000000  0.70970500  0.41216100  1
  O  O15  1  0.00000000  0.20970500  0.58783900  1
  O  O16  1  0.50000000  0.98092900  0.46593300  1
  O  O17  1  0.50000000  0.48092900  0.53406700  1
  O  O18  1  0.00000000  0.01657100  0.03308400  1
  O  O19  1  0.00000000  0.51657100  0.96691600  1
  O  O20  1  0.50000000  0.37610400  0.77399700  1
  O  O21  1  0.50000000  0.87610400  0.22600300  1
  O  O22  1  0.00000000  0.61644000  0.73443900  1
  O  O23  1  0.00000000  0.11644000  0.26556100  1
  O  O24  1  0.50000000  0.07839900  0.82940200  1
  O  O25  1  0.50000000  0.57839900  0.17059800  1
  O  O26  1  0.00000000  0.93073300  0.67871500  1
  O  O27  1  0.00000000  0.43073300  0.32128500  1
