# generated using pymatgen
data_Ca2Nb2O7
_symmetry_space_group_name_H-M   'P 1'
_cell_length_a   7.69700000
_cell_length_b   5.50200000
_cell_length_c   13.38500000
_cell_angle_alpha   90.00000000
_cell_angle_beta   98.33999997
_cell_angle_gamma   90.00000000
_symmetry_Int_Tables_number   1
_chemical_formula_structural   Ca2Nb2O7
_chemical_formula_sum   'Ca8 Nb8 O28'
_cell_volume   560.84548246
_cell_formula_units_Z   4
loop_
 _symmetry_equiv_pos_site_id
 _symmetry_equiv_pos_as_xyz
  1  'x, y, z'
loop_
 _atom_site_type_symbol
 _atom_site_label
 _atom_site_symmetry_multiplicity
 _atom_site_fract_x
 _atom_site_fract_y
 _atom_site_fract_z
 _atom_site_occupancy
  Ca  Ca0  1  0.22850000  0.24010000  0.91060000  1.0
  Ca  Ca1  1  0.77150000  0.74010000  0.08940000  1.0
  Ca  Ca2  1  0.14050000  0.65680000  0.56810000  1.0
  Ca  Ca3  1  0.85950000  0.15680000  0.43190000  1.0
  Ca  Ca4  1  0.71840000  0.25000000  0.87980000  1.0
  Ca  Ca5  1  0.28160000  0.75000000  0.12020000  1.0
  Ca  Ca6  1  0.64280000  0.72330000  0.60260000  1.0
  Ca  Ca7  1  0.35720000  0.22330000  0.39740000  1.0
  Nb  Nb8  1  0.47430000  0.73980000  0.88302000  1.0
  Nb  Nb9  1  0.52570000  0.23980000  0.11698000  1.0
  Nb  Nb10  1  0.41239000  0.21420000  0.67439000  1.0
  Nb  Nb11  1  0.58761000  0.71420000  0.32561000  1.0
  Nb  Nb12  1  0.96768000  0.73880000  0.88464000  1.0
  Nb  Nb13  1  0.03232000  0.23880000  0.11536000  1.0
  Nb  Nb14  1  0.92168000  0.21860000  0.67701000  1.0
  Nb  Nb15  1  0.07832000  0.71860000  0.32299000  1.0
  O  O16  1  0.07210000  0.44500000  0.40280000  1.0
  O  O17  1  0.92790000  0.94500000  0.59720000  1.0
  O  O18  1  0.01830000  0.55200000  0.18010000  1.0
  O  O19  1  0.98170000  0.05200000  0.81990000  1.0
  O  O20  1  0.32630000  0.65300000  0.30180000  1.0
  O  O21  1  0.67370000  0.15300000  0.69820000  1.0
  O  O22  1  0.27170000  0.33500000  0.08620000  1.0
  O  O23  1  0.72830000  0.83500000  0.91380000  1.0
  O  O24  1  0.13260000  0.93600000  0.42700000  1.0
  O  O25  1  0.86740000  0.43600000  0.57300000  1.0
  O  O26  1  0.11550000  0.04300000  0.22470000  1.0
  O  O27  1  0.88450000  0.54300000  0.77530000  1.0
  O  O28  1  0.04720000  0.96400000  0.01970000  1.0
  O  O29  1  0.95280000  0.46400000  0.98030000  1.0
  O  O30  1  0.63160000  0.42400000  0.38520000  1.0
  O  O31  1  0.36840000  0.92400000  0.61480000  1.0
  O  O32  1  0.53640000  0.46600000  0.98000000  1.0
  O  O33  1  0.46360000  0.96600000  0.02000000  1.0
  O  O34  1  0.50150000  0.54600000  0.77250000  1.0
  O  O35  1  0.49850000  0.04600000  0.22750000  1.0
  O  O36  1  0.41110000  0.41700000  0.56250000  1.0
  O  O37  1  0.58890000  0.91700000  0.43750000  1.0
  O  O38  1  0.22370000  0.67500000  0.89170000  1.0
  O  O39  1  0.77630000  0.17500000  0.10830000  1.0
  O  O40  1  0.17340000  0.31700000  0.69730000  1.0
  O  O41  1  0.82660000  0.81700000  0.30270000  1.0
  O  O42  1  0.42940000  0.05500000  0.82140000  1.0
  O  O43  1  0.57060000  0.55500000  0.17860000  1.0
