# generated using pymatgen
data_CaAl2Si3H6O13
_symmetry_space_group_name_H-M   'P 1'
_cell_length_a   6.57386000
_cell_length_b   9.90454824
_cell_length_c   10.13741558
_cell_angle_alpha   83.88378729
_cell_angle_beta   71.08061614
_cell_angle_gamma   70.81599029
_symmetry_Int_Tables_number   1
_chemical_formula_structural   CaAl2Si3H6O13
_chemical_formula_sum   'Ca2 Al4 Si6 H12 O26'
_cell_volume   589.72516858
_cell_formula_units_Z   2
loop_
 _symmetry_equiv_pos_site_id
 _symmetry_equiv_pos_as_xyz
  1  'x, y, z'
loop_
 _atom_site_type_symbol
 _atom_site_label
 _atom_site_symmetry_multiplicity
 _atom_site_fract_x
 _atom_site_fract_y
 _atom_site_fract_z
 _atom_site_occupancy
  Al  Al0  1  0.51546100  0.43340500  0.06714800  1
  Al  Al1  1  0.58260900  0.93340500  0.93285200  1
  Al  Al2  1  0.24949800  0.60005200  0.42292000  1
  Al  Al3  1  0.67241800  0.10005200  0.57708000  1
  Ca  Ca4  1  0.62832800  0.05209400  0.21382700  1
  Ca  Ca5  1  0.84215500  0.55209400  0.78617300  1
  H  H6  1  0.18837500  0.44907900  0.94143300  1
  H  H7  1  0.12980800  0.94907900  0.05856700  1
  H  H8  1  0.31175100  0.37460900  0.79288500  1
  H  H9  1  0.10463600  0.87460900  0.20711500  1
  H  H10  1  0.43465500  0.69115300  0.68450800  1
  H  H11  1  0.11916300  0.19115300  0.31549200  1
  H  H12  1  0.56249100  0.54529400  0.60189800  1
  H  H13  1  0.16438900  0.04529400  0.39810200  1
  H  H14  1  0.08476900  0.27560600  0.61887700  1
  H  H15  1  0.70364600  0.77560600  0.38112300  1
  H  H16  1  0.04324200  0.40769800  0.51158400  1
  H  H17  1  0.55482600  0.90769800  0.48841600  1
  O  O18  1  0.22209100  0.46906700  0.09936100  1
  O  O19  1  0.32145200  0.96906700  0.90063900  1
  O  O20  1  0.07259800  0.52671700  0.37444700  1
  O  O21  1  0.44704500  0.02671700  0.62555300  1
  O  O22  1  0.67309600  0.35658400  0.90218200  1
  O  O23  1  0.57527800  0.85658400  0.09781800  1
  O  O24  1  0.10192800  0.67589000  0.58962400  1
  O  O25  1  0.69155200  0.17589000  0.41037600  1
  O  O26  1  0.59315800  0.31561500  0.19927600  1
  O  O27  1  0.79243400  0.81561500  0.80072400  1
  O  O28  1  0.33681100  0.71622400  0.28874700  1
  O  O29  1  0.62555800  0.21622400  0.71125300  1
  O  O30  1  0.64552700  0.08888000  0.95798000  1
  O  O31  1  0.60350700  0.58888000  0.04202000  1
  O  O32  1  0.93149100  0.96381900  0.56304300  1
  O  O33  1  0.49453400  0.46381900  0.43695700  1
  O  O34  1  0.01650600  0.13361300  0.77763800  1
  O  O35  1  0.79414400  0.63361300  0.22236200  1
  O  O36  1  0.20097300  0.85286900  0.72220300  1
  O  O37  1  0.92317600  0.35286900  0.27779700  1
  O  O38  1  0.16932000  0.44075600  0.84945800  1
  O  O39  1  0.01877800  0.94075600  0.15054200  1
  O  O40  1  0.57809300  0.61114800  0.66109400  1
  O  O41  1  0.23918700  0.11114800  0.33890600  1
  O  O42  1  0.02123400  0.37884200  0.61069000  1
  O  O43  1  0.63192400  0.87884200  0.38931000  1
  Si  Si44  1  0.00676400  0.49739500  0.24170300  1
  Si  Si45  1  0.24846700  0.99739500  0.75829700  1
  Si  Si46  1  0.73685100  0.19923000  0.83675700  1
  Si  Si47  1  0.57360800  0.69923000  0.16324300  1
  Si  Si48  1  0.00276100  0.83133200  0.66451400  1
  Si  Si49  1  0.66727500  0.33133200  0.33548600  1
