# generated using pymatgen
data_K2MgSiTe4
_symmetry_space_group_name_H-M   'P 1'
_cell_length_a   6.95501113
_cell_length_b   6.95501113
_cell_length_c   6.95501113
_cell_angle_alpha   104.95801762
_cell_angle_beta   104.95801762
_cell_angle_gamma   118.93241350
_symmetry_Int_Tables_number   1
_chemical_formula_structural   K2MgSiTe4
_chemical_formula_sum   'K2 Mg1 Si1 Te4'
_cell_volume   253.60962156
_cell_formula_units_Z   1
loop_
 _symmetry_equiv_pos_site_id
 _symmetry_equiv_pos_as_xyz
  1  'x, y, z'
loop_
 _atom_site_type_symbol
 _atom_site_label
 _atom_site_symmetry_multiplicity
 _atom_site_fract_x
 _atom_site_fract_y
 _atom_site_fract_z
 _atom_site_occupancy
  K  K0  1  0.00000000  0.50000000  0.50000000  1
  K  K1  1  0.50000000  0.00000000  0.50000000  1
  Mg  Mg2  1  0.50000000  0.50000000  0.00000000  1
  Si  Si3  1  0.00000000  0.00000000  0.00000000  1
  Te  Te4  1  0.05238010  0.38864954  0.00000000  1
  Te  Te5  1  0.61135046  0.61135046  0.66373056  1
  Te  Te6  1  0.94761990  0.94761990  0.33626944  1
  Te  Te7  1  0.38864954  0.05238010  1.00000000  1
