# generated using pymatgen
data_NaCaMgAl(SiO3)4
_symmetry_space_group_name_H-M   'P 1'
_cell_length_a   5.31949563
_cell_length_b   6.56482116
_cell_length_c   6.56482116
_cell_angle_alpha   84.76290421
_cell_angle_beta   77.24146721
_cell_angle_gamma   77.24146721
_symmetry_Int_Tables_number   1
_chemical_formula_structural   NaCaMgAl(SiO3)4
_chemical_formula_sum   'Na1 Ca1 Mg1 Al1 Si4 O12'
_cell_volume   217.85477645
_cell_formula_units_Z   1
loop_
 _symmetry_equiv_pos_site_id
 _symmetry_equiv_pos_as_xyz
  1  'x, y, z'
loop_
 _atom_site_type_symbol
 _atom_site_label
 _atom_site_symmetry_multiplicity
 _atom_site_fract_x
 _atom_site_fract_y
 _atom_site_fract_z
 _atom_site_occupancy
  Al  Al0  1  0.00000000  0.90122400  0.09877600  1
  Ca  Ca1  1  0.00000000  0.30091700  0.69908300  1
  Mg  Mg2  1  0.50000000  0.09001300  0.90998700  1
  Na  Na3  1  0.50000000  0.70045900  0.29954100  1
  O  O4  1  0.56106300  0.38804600  0.89356400  1
  O  O5  1  0.43893700  0.10643600  0.61195400  1
  O  O6  1  0.94798000  0.62220900  0.10503800  1
  O  O7  1  0.05202000  0.89496200  0.37779100  1
  O  O8  1  0.36124600  0.80784000  0.97307900  1
  O  O9  1  0.63875400  0.02692100  0.19216000  1
  O  O10  1  0.09695800  0.19350800  0.03409400  1
  O  O11  1  0.90304200  0.96590600  0.80649200  1
  O  O12  1  0.25084400  0.62962800  0.65678900  1
  O  O13  1  0.74915600  0.34321100  0.37037200  1
  O  O14  1  0.25037800  0.35748600  0.33431200  1
  O  O15  1  0.74962200  0.66568800  0.64251400  1
  Si  Si16  1  0.47100600  0.62261600  0.80578800  1
  Si  Si17  1  0.52899400  0.19421200  0.37738400  1
  Si  Si18  1  0.01773500  0.38447100  0.19575400  1
  Si  Si19  1  0.98226500  0.80424600  0.61552900  1
