# generated using pymatgen
data_Cs3W(OF)3
_symmetry_space_group_name_H-M   'P 1'
_cell_length_a   6.67263229
_cell_length_b   6.67263229
_cell_length_c   6.67263229
_cell_angle_alpha   60.32939743
_cell_angle_beta   60.32939743
_cell_angle_gamma   60.32939743
_symmetry_Int_Tables_number   1
_chemical_formula_structural   Cs3W(OF)3
_chemical_formula_sum   'Cs3 W1 O3 F3'
_cell_volume   211.64167995
_cell_formula_units_Z   1
loop_
 _symmetry_equiv_pos_site_id
 _symmetry_equiv_pos_as_xyz
  1  'x, y, z'
loop_
 _atom_site_type_symbol
 _atom_site_label
 _atom_site_symmetry_multiplicity
 _atom_site_fract_x
 _atom_site_fract_y
 _atom_site_fract_z
 _atom_site_occupancy
  Cs  Cs0  1  0.74824559  0.74824559  0.74824559  1
  Cs  Cs1  1  0.49086359  0.49086359  0.49086359  1
  Cs  Cs2  1  0.24739763  0.24739763  0.24739763  1
  F  F3  1  0.84438028  0.72972485  0.16137148  1
  F  F4  1  0.72972485  0.16137148  0.84438028  1
  F  F5  1  0.16137148  0.84438028  0.72972485  1
  O  O6  1  0.12856682  0.23982444  0.78118505  1
  O  O7  1  0.78118505  0.12856682  0.23982444  1
  O  O8  1  0.23982444  0.78118505  0.12856682  1
  W  W9  1  0.00096827  0.00096827  0.00096827  1
