# generated using pymatgen
data_Hf(ClO4)4
_symmetry_space_group_name_H-M   'P 1'
_cell_length_a   7.55837679
_cell_length_b   7.55837679
_cell_length_c   13.16100000
_cell_angle_alpha   75.02355687
_cell_angle_beta   75.02355687
_cell_angle_gamma   63.37838866
_symmetry_Int_Tables_number   1
_chemical_formula_structural   Hf(ClO4)4
_chemical_formula_sum   'Hf2 Cl8 O32'
_cell_volume   640.41764060
_cell_formula_units_Z   2
loop_
 _symmetry_equiv_pos_site_id
 _symmetry_equiv_pos_as_xyz
  1  'x, y, z'
loop_
 _atom_site_type_symbol
 _atom_site_label
 _atom_site_symmetry_multiplicity
 _atom_site_fract_x
 _atom_site_fract_y
 _atom_site_fract_z
 _atom_site_occupancy
  Hf  Hf8  1  0.40250000  0.34610000  0.59310000  1.0
  Hf  Hf9  1  0.34610000  0.40250000  0.09310000  1.0
  Cl  Cl0  1  0.70400000  0.15400000  0.42800000  1.0
  Cl  Cl1  1  0.40400000  0.99800000  0.16500000  1.0
  Cl  Cl2  1  0.74200000  0.36400000  0.99800000  1.0
  Cl  Cl3  1  0.55900000  0.04900000  0.76500000  1.0
  Cl  Cl4  1  0.36400000  0.74200000  0.49800000  1.0
  Cl  Cl5  1  0.15400000  0.70400000  0.92800000  1.0
  Cl  Cl6  1  0.99800000  0.40400000  0.66500000  1.0
  Cl  Cl7  1  0.04900000  0.55900000  0.26500000  1.0
  O  O10  1  0.59700000  0.32300000  0.96700000  1.0
  O  O11  1  0.26200000  0.94200000  0.24100000  1.0
  O  O12  1  0.84600000  0.57400000  0.62400000  1.0
  O  O13  1  0.04700000  0.47900000  0.18000000  1.0
  O  O14  1  0.33000000  0.14200000  0.06200000  1.0
  O  O15  1  0.26000000  0.72200000  0.00900000  1.0
  O  O16  1  0.50500000  0.99100000  0.86100000  1.0
  O  O17  1  0.56100000  0.25900000  0.73100000  1.0
  O  O18  1  0.44800000  0.61400000  0.59900000  1.0
  O  O19  1  0.94500000  0.83100000  0.94800000  1.0
  O  O20  1  0.72200000  0.26000000  0.50900000  1.0
  O  O21  1  0.70800000  0.31600000  0.32300000  1.0
  O  O22  1  0.92600000  0.19600000  0.02900000  1.0
  O  O23  1  0.32300000  0.59700000  0.46700000  1.0
  O  O24  1  0.47300000  0.12700000  0.20900000  1.0
  O  O25  1  0.52800000  0.76400000  0.42300000  1.0
  O  O26  1  0.14200000  0.33000000  0.56200000  1.0
  O  O27  1  0.93300000  0.75700000  0.26000000  1.0
  O  O28  1  0.20600000  0.47000000  0.96300000  1.0
  O  O29  1  0.57400000  0.84600000  0.12400000  1.0
  O  O30  1  0.61400000  0.44800000  0.09900000  1.0
  O  O31  1  0.19600000  0.92600000  0.52900000  1.0
  O  O32  1  0.25900000  0.56100000  0.23100000  1.0
  O  O33  1  0.99100000  0.50500000  0.36100000  1.0
  O  O34  1  0.83100000  0.94500000  0.44800000  1.0
  O  O35  1  0.76400000  0.52800000  0.92300000  1.0
  O  O36  1  0.31600000  0.70800000  0.82300000  1.0
  O  O37  1  0.47900000  0.04700000  0.68000000  1.0
  O  O38  1  0.47000000  0.20600000  0.46300000  1.0
  O  O39  1  0.75700000  0.93300000  0.76000000  1.0
  O  O40  1  0.94200000  0.26200000  0.74100000  1.0
  O  O41  1  0.12700000  0.47300000  0.70900000  1.0
