# generated using pymatgen
data_K2MgSnS4
_symmetry_space_group_name_H-M   'P 1'
_cell_length_a   6.35436629
_cell_length_b   6.35436629
_cell_length_c   6.35436629
_cell_angle_alpha   105.44663787
_cell_angle_beta   105.44663787
_cell_angle_gamma   117.86036996
_symmetry_Int_Tables_number   1
_chemical_formula_structural   K2MgSnS4
_chemical_formula_sum   'K2 Mg1 Sn1 S4'
_cell_volume   194.29425019
_cell_formula_units_Z   1
loop_
 _symmetry_equiv_pos_site_id
 _symmetry_equiv_pos_as_xyz
  1  'x, y, z'
loop_
 _atom_site_type_symbol
 _atom_site_label
 _atom_site_symmetry_multiplicity
 _atom_site_fract_x
 _atom_site_fract_y
 _atom_site_fract_z
 _atom_site_occupancy
  K  K0  1  0.50000000  -0.00000000  0.50000000  1
  K  K1  1  -0.00000000  0.50000000  0.50000000  1
  Mg  Mg2  1  0.00000000  0.00000000  0.00000000  1
  S  S3  1  0.90840223  0.57231574  -0.00000000  1
  S  S4  1  0.42768426  0.42768426  0.33608649  1
  S  S5  1  0.09159777  0.09159777  0.66391351  1
  S  S6  1  0.57231574  0.90840223  -0.00000000  1
  Sn  Sn7  1  0.50000000  0.50000000  -0.00000000  1
