# generated using pymatgen
data_KCuH2
_symmetry_space_group_name_H-M   'P 1'
_cell_length_a   5.26064713
_cell_length_b   5.26064713
_cell_length_c   5.26064713
_cell_angle_alpha   90.92251452
_cell_angle_beta   119.46882295
_cell_angle_gamma   119.46882295
_symmetry_Int_Tables_number   1
_chemical_formula_structural   KCuH2
_chemical_formula_sum   'K2 Cu2 H4'
_cell_volume   103.75630431
_cell_formula_units_Z   2
loop_
 _symmetry_equiv_pos_site_id
 _symmetry_equiv_pos_as_xyz
  1  'x, y, z'
loop_
 _atom_site_type_symbol
 _atom_site_label
 _atom_site_symmetry_multiplicity
 _atom_site_fract_x
 _atom_site_fract_y
 _atom_site_fract_z
 _atom_site_occupancy
  Cu  Cu0  1  0.00000000  0.00000000  0.00000000  1
  Cu  Cu1  1  0.50000000  0.75000000  0.25000000  1
  H  H2  1  0.18273102  0.37500000  0.05773102  1
  H  H3  1  0.81726898  0.87500000  0.19226898  1
  H  H4  1  0.31726898  0.94226898  0.12500000  1
  H  H5  1  0.68273102  0.80773102  0.62500000  1
  K  K6  1  -0.00000000  0.50000000  0.50000000  1
  K  K7  1  0.50000000  0.25000000  0.75000000  1
