# generated using pymatgen
data_Ge3(SbO3)4
_symmetry_space_group_name_H-M   'P 1'
_cell_length_a   9.09562936
_cell_length_b   9.09562936
_cell_length_c   9.09562936
_cell_angle_alpha   109.47122063
_cell_angle_beta   109.47122063
_cell_angle_gamma   109.47122063
_symmetry_Int_Tables_number   1
_chemical_formula_structural   Ge3(SbO3)4
_chemical_formula_sum   'Ge6 Sb8 O24'
_cell_volume   579.26377953
_cell_formula_units_Z   2
loop_
 _symmetry_equiv_pos_site_id
 _symmetry_equiv_pos_as_xyz
  1  'x, y, z'
loop_
 _atom_site_type_symbol
 _atom_site_label
 _atom_site_symmetry_multiplicity
 _atom_site_fract_x
 _atom_site_fract_y
 _atom_site_fract_z
 _atom_site_occupancy
  Ge  Ge0  1  0.75000000  0.37500000  0.12500000  1
  Ge  Ge1  1  0.25000000  0.12500000  0.37500000  1
  Ge  Ge2  1  0.87500000  0.62500000  0.75000000  1
  Ge  Ge3  1  0.62500000  0.87500000  0.25000000  1
  Ge  Ge4  1  0.37500000  0.75000000  0.62500000  1
  Ge  Ge5  1  0.12500000  0.25000000  0.87500000  1
  O  O6  1  0.55823531  0.34599588  0.14509427  1
  O  O7  1  0.29909839  0.15400412  0.21223943  1
  O  O8  1  0.94176469  0.58685896  0.28776057  1
  O  O9  1  0.20090161  0.91314104  0.35490573  1
  O  O10  1  0.71223943  0.65400412  0.79909839  1
  O  O11  1  0.64509427  0.84599588  0.05823531  1
  O  O12  1  0.85490573  0.41314104  0.70090161  1
  O  O13  1  0.78776057  0.08685896  0.44176469  1
  O  O14  1  0.21223943  0.79909839  0.65400412  1
  O  O15  1  0.14509427  0.05823531  0.84599588  1
  O  O16  1  0.35490573  0.70090161  0.41314104  1
  O  O17  1  0.28776057  0.44176469  0.08685896  1
  O  O18  1  0.05823531  0.14509427  0.34599588  1
  O  O19  1  0.79909839  0.21223943  0.15400412  1
  O  O20  1  0.44176469  0.28776057  0.58685896  1
  O  O21  1  0.70090161  0.35490573  0.91314104  1
  O  O22  1  0.41314104  0.85490573  0.20090161  1
  O  O23  1  0.08685896  0.78776057  0.94176469  1
  O  O24  1  0.65400412  0.71223943  0.29909839  1
  O  O25  1  0.84599588  0.64509427  0.55823531  1
  O  O26  1  0.91314104  0.20090161  0.85490573  1
  O  O27  1  0.58685896  0.94176469  0.78776057  1
  O  O28  1  0.15400412  0.29909839  0.71223943  1
  O  O29  1  0.34599588  0.55823531  0.64509427  1
  Sb  Sb30  1  0.69212092  0.19212092  0.69212092  1
  Sb  Sb31  1  1.00000000  0.30787908  0.50000000  1
  Sb  Sb32  1  0.80787908  0.00000000  1.00000000  1
  Sb  Sb33  1  0.50000000  0.50000000  0.80787908  1
  Sb  Sb34  1  0.00000000  0.80787908  0.50000000  1
  Sb  Sb35  1  0.19212092  0.69212092  0.19212092  1
  Sb  Sb36  1  0.30787908  -0.00000000  -0.00000000  1
  Sb  Sb37  1  0.50000000  0.50000000  0.30787908  1
