# generated using pymatgen
data_Rb3W(OF)3
_symmetry_space_group_name_H-M   'P 1'
_cell_length_a   6.42879556
_cell_length_b   6.42879556
_cell_length_c   6.42879556
_cell_angle_alpha   60.17617322
_cell_angle_beta   60.17617322
_cell_angle_gamma   60.17617322
_symmetry_Int_Tables_number   1
_chemical_formula_structural   Rb3W(OF)3
_chemical_formula_sum   'Rb3 W1 O3 F3'
_cell_volume   188.62669722
_cell_formula_units_Z   1
loop_
 _symmetry_equiv_pos_site_id
 _symmetry_equiv_pos_as_xyz
  1  'x, y, z'
loop_
 _atom_site_type_symbol
 _atom_site_label
 _atom_site_symmetry_multiplicity
 _atom_site_fract_x
 _atom_site_fract_y
 _atom_site_fract_z
 _atom_site_occupancy
  F  F0  1  0.84956970  0.71057051  0.16430331  1
  F  F1  1  0.71057051  0.16430331  0.84956970  1
  F  F2  1  0.16430331  0.84956970  0.71057051  1
  O  O3  1  0.12245456  0.25660174  0.77416977  1
  O  O4  1  0.77416977  0.12245456  0.25660174  1
  O  O5  1  0.25660174  0.77416977  0.12245456  1
  Rb  Rb6  1  0.75269651  0.75269651  0.75269651  1
  Rb  Rb7  1  0.49039121  0.49039121  0.49039121  1
  Rb  Rb8  1  0.25119921  0.25119921  0.25119921  1
  W  W9  1  0.00073249  0.00073249  0.00073249  1
