# generated using pymatgen
data_Sb6S2O15
_symmetry_space_group_name_H-M   'P 1'
_cell_length_a   5.87600000
_cell_length_b   11.26534351
_cell_length_c   11.26534351
_cell_angle_alpha   115.19726413
_cell_angle_beta   90.00000000
_cell_angle_gamma   90.00000000
_symmetry_Int_Tables_number   1
_chemical_formula_structural   Sb6S2O15
_chemical_formula_sum   'Sb12 S4 O30'
_cell_volume   674.75482624
_cell_formula_units_Z   2
loop_
 _symmetry_equiv_pos_site_id
 _symmetry_equiv_pos_as_xyz
  1  'x, y, z'
loop_
 _atom_site_type_symbol
 _atom_site_label
 _atom_site_symmetry_multiplicity
 _atom_site_fract_x
 _atom_site_fract_y
 _atom_site_fract_z
 _atom_site_occupancy
  Sb  Sb34  1  0.86837000  0.11426000  0.70044000  1.0
  Sb  Sb35  1  0.86837000  0.88574000  0.29956000  1.0
  Sb  Sb36  1  0.36837000  0.29956000  0.88574000  1.0
  Sb  Sb37  1  0.36837000  0.70044000  0.11426000  1.0
  Sb  Sb38  1  0.38646000  0.37725000  0.24705000  1.0
  Sb  Sb39  1  0.38646000  0.62275000  0.75295000  1.0
  Sb  Sb40  1  0.88646000  0.75295000  0.62275000  1.0
  Sb  Sb41  1  0.88646000  0.24705000  0.37725000  1.0
  Sb  Sb42  1  0.50000000  0.95823000  0.82611000  1.0
  Sb  Sb43  1  0.50000000  0.04177000  0.17389000  1.0
  Sb  Sb44  1  0.00000000  0.17389000  0.04177000  1.0
  Sb  Sb45  1  0.00000000  0.82611000  0.95823000  1.0
  S  S30  1  0.34110000  0.78890000  0.47810000  1.0
  S  S31  1  0.34110000  0.21110000  0.52190000  1.0
  S  S32  1  0.84110000  0.52190000  0.21110000  1.0
  S  S33  1  0.84110000  0.47810000  0.78890000  1.0
  O  O0  1  0.33730000  0.66410000  0.48850000  1.0
  O  O1  1  0.33730000  0.33590000  0.51150000  1.0
  O  O2  1  0.83730000  0.51150000  0.33590000  1.0
  O  O3  1  0.83730000  0.48850000  0.66410000  1.0
  O  O4  1  0.29890000  0.76680000  0.34200000  1.0
  O  O5  1  0.29890000  0.23320000  0.65800000  1.0
  O  O6  1  0.79890000  0.65800000  0.23320000  1.0
  O  O7  1  0.79890000  0.34200000  0.76680000  1.0
  O  O8  1  0.15000000  0.87000000  0.56060000  1.0
  O  O9  1  0.15000000  0.13000000  0.43940000  1.0
  O  O10  1  0.65000000  0.43940000  0.13000000  1.0
  O  O11  1  0.65000000  0.56060000  0.87000000  1.0
  O  O12  1  0.15480000  0.00000000  0.00000000  1.0
  O  O13  1  0.65480000  0.00000000  0.00000000  1.0
  O  O14  1  0.11290000  0.75860000  0.75680000  1.0
  O  O15  1  0.11290000  0.24140000  0.24320000  1.0
  O  O16  1  0.61290000  0.24320000  0.24140000  1.0
  O  O17  1  0.61290000  0.75680000  0.75860000  1.0
  O  O18  1  0.83000000  0.05200000  0.25400000  1.0
  O  O19  1  0.83000000  0.94800000  0.74600000  1.0
  O  O20  1  0.33000000  0.74600000  0.94800000  1.0
  O  O21  1  0.33000000  0.25400000  0.05200000  1.0
  O  O22  1  0.10700000  0.82770000  0.15810000  1.0
  O  O23  1  0.10700000  0.17230000  0.84190000  1.0
  O  O24  1  0.60700000  0.84190000  0.17230000  1.0
  O  O25  1  0.60700000  0.15810000  0.82770000  1.0
  O  O26  1  0.56040000  0.85900000  0.52400000  1.0
  O  O27  1  0.56040000  0.14100000  0.47600000  1.0
  O  O28  1  0.06040000  0.47600000  0.14100000  1.0
  O  O29  1  0.06040000  0.52400000  0.85900000  1.0
