# generated using pymatgen
data_K2HgGeSe4
_symmetry_space_group_name_H-M   'P 1'
_cell_length_a   6.57428756
_cell_length_b   6.57428756
_cell_length_c   6.57428756
_cell_angle_alpha   105.76746643
_cell_angle_beta   105.76746643
_cell_angle_gamma   117.16356999
_symmetry_Int_Tables_number   1
_chemical_formula_structural   K2HgGeSe4
_chemical_formula_sum   'K2 Hg1 Ge1 Se4'
_cell_volume   215.74367725
_cell_formula_units_Z   1
loop_
 _symmetry_equiv_pos_site_id
 _symmetry_equiv_pos_as_xyz
  1  'x, y, z'
loop_
 _atom_site_type_symbol
 _atom_site_label
 _atom_site_symmetry_multiplicity
 _atom_site_fract_x
 _atom_site_fract_y
 _atom_site_fract_z
 _atom_site_occupancy
  Ge  Ge0  1  0.50000000  0.50000000  0.00000000  1
  Hg  Hg1  1  0.00000000  0.00000000  0.00000000  1
  K  K2  1  -0.00000000  0.50000000  0.50000000  1
  K  K3  1  0.50000000  -0.00000000  0.50000000  1
  Se  Se4  1  0.11643557  0.45086138  1.00000000  1
  Se  Se5  1  0.45086138  0.11643557  -0.00000000  1
  Se  Se6  1  0.54913862  0.54913862  0.66557419  1
  Se  Se7  1  0.88356443  0.88356443  0.33442581  1
