# generated using pymatgen
data_AlInS3
_symmetry_space_group_name_H-M   'P 1'
_cell_length_a   6.77022780
_cell_length_b   17.96964451
_cell_length_c   6.77047162
_cell_angle_alpha   90.00000000
_cell_angle_beta   119.99228578
_cell_angle_gamma   90.00000000
_symmetry_Int_Tables_number   1
_chemical_formula_structural   AlInS3
_chemical_formula_sum   'Al6 In6 S18'
_cell_volume   713.38845288
_cell_formula_units_Z   6
loop_
 _symmetry_equiv_pos_site_id
 _symmetry_equiv_pos_as_xyz
  1  'x, y, z'
loop_
 _atom_site_type_symbol
 _atom_site_label
 _atom_site_symmetry_multiplicity
 _atom_site_fract_x
 _atom_site_fract_y
 _atom_site_fract_z
 _atom_site_occupancy
  Al  Al0  1  0.18347162  0.48734280  0.16842470  1
  Al  Al1  1  0.48514010  0.15405148  0.81657331  1
  Al  Al2  1  0.81652838  0.98734280  0.83157530  1
  Al  Al3  1  0.51485990  0.65405148  0.18342669  1
  Al  Al4  1  0.16836921  0.32059361  0.48503486  1
  Al  Al5  1  0.83163079  0.82059361  0.51496514  1
  In  In6  1  0.50246036  0.29206871  0.16942936  1
  In  In7  1  0.16941959  0.12537420  0.16687921  1
  In  In8  1  0.16690620  0.95876691  0.49757288  1
  In  In9  1  0.83309380  0.45876691  0.50242712  1
  In  In10  1  0.83058041  0.62537420  0.83312079  1
  In  In11  1  0.49753964  0.79206871  0.83057064  1
  S  S12  1  0.13256799  0.80915716  0.46343582  1
  S  S13  1  0.79102816  0.11398641  0.79368864  1
  S  S14  1  0.53122914  0.94017923  0.86841474  1
  S  S15  1  0.79374515  0.94725411  0.50283371  1
  S  S16  1  0.46347021  0.64245841  0.83103858  1
  S  S17  1  0.83695036  0.60689625  0.46865456  1
  S  S18  1  0.20625485  0.44725411  0.49716629  1
  S  S19  1  0.46877086  0.44017923  0.13158526  1
  S  S20  1  0.53652979  0.14245841  0.16896142  1
  S  S21  1  0.49729574  0.28067098  0.79099017  1
  S  S22  1  0.16894938  0.97582421  0.13251901  1
  S  S23  1  0.50270426  0.78067098  0.20900983  1
  S  S24  1  0.86831491  0.77345948  0.83704703  1
  S  S25  1  0.83105062  0.47582421  0.86748099  1
  S  S26  1  0.20897184  0.61398641  0.20631136  1
  S  S27  1  0.86743201  0.30915716  0.53656418  1
  S  S28  1  0.16304964  0.10689625  0.53134544  1
  S  S29  1  0.13168509  0.27345948  0.16295297  1
