# generated using pymatgen
data_CsInO2
_symmetry_space_group_name_H-M   'P 1'
_cell_length_a   6.08089688
_cell_length_b   6.08089688
_cell_length_c   6.08089688
_cell_angle_alpha   94.38624130
_cell_angle_beta   117.50074847
_cell_angle_gamma   117.50074847
_symmetry_Int_Tables_number   1
_chemical_formula_structural   CsInO2
_chemical_formula_sum   'Cs2 In2 O4'
_cell_volume   164.48146636
_cell_formula_units_Z   2
loop_
 _symmetry_equiv_pos_site_id
 _symmetry_equiv_pos_as_xyz
  1  'x, y, z'
loop_
 _atom_site_type_symbol
 _atom_site_label
 _atom_site_symmetry_multiplicity
 _atom_site_fract_x
 _atom_site_fract_y
 _atom_site_fract_z
 _atom_site_occupancy
  Cs  Cs0  1  0.50000000  0.75000000  0.25000000  1
  Cs  Cs1  1  0.00000000  0.00000000  0.00000000  1
  In  In2  1  0.50000000  0.25000000  0.75000000  1
  In  In3  1  0.00000000  0.50000000  0.50000000  1
  O  O4  1  0.11652601  0.87500000  0.49152601  1
  O  O5  1  0.88347399  0.37500000  0.75847399  1
  O  O6  1  0.61652601  0.24152601  0.12500000  1
  O  O7  1  0.38347399  0.50847399  0.62500000  1
