# generated using pymatgen
data_RbPH3O4F
_symmetry_space_group_name_H-M   'P 1'
_cell_length_a   9.17400100
_cell_length_b   4.65991500
_cell_length_c   12.09174900
_cell_angle_alpha   90.00000000
_cell_angle_beta   90.00000000
_cell_angle_gamma   90.00000000
_symmetry_Int_Tables_number   1
_chemical_formula_structural   RbPH3O4F
_chemical_formula_sum   'Rb4 P4 H12 O16 F4'
_cell_volume   516.92305414
_cell_formula_units_Z   4
loop_
 _symmetry_equiv_pos_site_id
 _symmetry_equiv_pos_as_xyz
  1  'x, y, z'
loop_
 _atom_site_type_symbol
 _atom_site_label
 _atom_site_symmetry_multiplicity
 _atom_site_fract_x
 _atom_site_fract_y
 _atom_site_fract_z
 _atom_site_occupancy
  Rb  Rb0  1  0.84537100  0.63217200  0.69902000  1.0
  Rb  Rb1  1  0.65462900  0.13217200  0.19902000  1.0
  Rb  Rb2  1  0.34537100  0.86782800  0.69902000  1.0
  Rb  Rb3  1  0.15462900  0.36782800  0.19902000  1.0
  P  P4  1  0.97788600  0.92028100  0.95548700  1.0
  P  P5  1  0.52211400  0.42028100  0.45548700  1.0
  P  P6  1  0.47788600  0.57971900  0.95548700  1.0
  P  P7  1  0.02211400  0.07971900  0.45548700  1.0
  H  H8  1  0.89673500  0.36333200  0.99296900  1.0
  H  H9  1  0.89916800  0.75150500  0.29517400  1.0
  H  H10  1  0.78669400  0.18349400  0.48971300  1.0
  H  H11  1  0.71330600  0.68349400  0.98971300  1.0
  H  H12  1  0.60083200  0.25150500  0.79517400  1.0
  H  H13  1  0.60326500  0.86333200  0.49296900  1.0
  H  H14  1  0.39673500  0.13666800  0.99296900  1.0
  H  H15  1  0.39916800  0.74849500  0.29517400  1.0
  H  H16  1  0.28669400  0.31650600  0.48971300  1.0
  H  H17  1  0.21330600  0.81650600  0.98971300  1.0
  H  H18  1  0.10083200  0.24849500  0.79517400  1.0
  H  H19  1  0.10326500  0.63666800  0.49296900  1.0
  O  O20  1  0.97472200  0.96484200  0.34418200  1.0
  O  O21  1  0.90167900  0.16243200  0.02856800  1.0
  O  O22  1  0.88781200  0.18422600  0.52775400  1.0
  O  O23  1  0.87074400  0.66842400  0.94755400  1.0
  O  O24  1  0.62925600  0.16842400  0.44755400  1.0
  O  O25  1  0.61218800  0.68422600  0.02775400  1.0
  O  O26  1  0.59832100  0.66243200  0.52856800  1.0
  O  O27  1  0.52527800  0.46484200  0.84418200  1.0
  O  O28  1  0.47472200  0.53515800  0.34418200  1.0
  O  O29  1  0.40167900  0.33756800  0.02856800  1.0
  O  O30  1  0.38781200  0.31577400  0.52775400  1.0
  O  O31  1  0.37074400  0.83157600  0.94755400  1.0
  O  O32  1  0.12925600  0.33157600  0.44755400  1.0
  O  O33  1  0.11218800  0.81577400  0.02775400  1.0
  O  O34  1  0.09832100  0.83756800  0.52856800  1.0
  O  O35  1  0.02527800  0.03515800  0.84418200  1.0
  F  F36  1  0.84369800  0.60101900  0.24761000  1.0
  F  F37  1  0.65630200  0.10101900  0.74761000  1.0
  F  F38  1  0.34369800  0.89898100  0.24761000  1.0
  F  F39  1  0.15630200  0.39898100  0.74761000  1.0
