# generated using pymatgen
data_SrSiP2
_symmetry_space_group_name_H-M   'P 1'
_cell_length_a   6.15733720
_cell_length_b   6.15733720
_cell_length_c   6.15733720
_cell_angle_alpha   103.52482336
_cell_angle_beta   112.52377032
_cell_angle_gamma   112.52377032
_symmetry_Int_Tables_number   1
_chemical_formula_structural   SrSiP2
_chemical_formula_sum   'Sr2 Si2 P4'
_cell_volume   178.27244650
_cell_formula_units_Z   2
loop_
 _symmetry_equiv_pos_site_id
 _symmetry_equiv_pos_as_xyz
  1  'x, y, z'
loop_
 _atom_site_type_symbol
 _atom_site_label
 _atom_site_symmetry_multiplicity
 _atom_site_fract_x
 _atom_site_fract_y
 _atom_site_fract_z
 _atom_site_occupancy
  P  P0  1  0.08928667  0.21428667  0.62500000  1
  P  P1  1  0.91071333  0.53571333  0.12500000  1
  P  P2  1  0.41071333  0.87500000  0.78571333  1
  P  P3  1  0.58928667  0.37500000  0.46428667  1
  Si  Si4  1  -0.00000000  0.50000000  0.50000000  1
  Si  Si5  1  0.50000000  0.25000000  0.75000000  1
  Sr  Sr6  1  0.00000000  0.00000000  0.00000000  1
  Sr  Sr7  1  0.50000000  0.75000000  0.25000000  1
