# generated using pymatgen
data_Rb2HgGeSe4
_symmetry_space_group_name_H-M   'P 1'
_cell_length_a   6.73783764
_cell_length_b   6.73783764
_cell_length_c   6.73783764
_cell_angle_alpha   105.34568129
_cell_angle_beta   105.34568129
_cell_angle_gamma   118.08078408
_symmetry_Int_Tables_number   1
_chemical_formula_structural   Rb2HgGeSe4
_chemical_formula_sum   'Rb2 Hg1 Ge1 Se4'
_cell_volume   231.43009142
_cell_formula_units_Z   1
loop_
 _symmetry_equiv_pos_site_id
 _symmetry_equiv_pos_as_xyz
  1  'x, y, z'
loop_
 _atom_site_type_symbol
 _atom_site_label
 _atom_site_symmetry_multiplicity
 _atom_site_fract_x
 _atom_site_fract_y
 _atom_site_fract_z
 _atom_site_occupancy
  Ge  Ge0  1  0.50000000  0.50000000  -0.00000000  1
  Hg  Hg1  1  0.00000000  0.00000000  0.00000000  1
  Rb  Rb2  1  -0.00000000  0.50000000  0.50000000  1
  Rb  Rb3  1  0.50000000  -0.00000000  0.50000000  1
  Se  Se4  1  0.55595534  0.55595534  0.67790923  1
  Se  Se5  1  0.44404466  0.12195389  -0.00000000  1
  Se  Se6  1  0.12195389  0.44404466  -0.00000000  1
  Se  Se7  1  0.87804611  0.87804611  0.32209077  1
