# generated using pymatgen
data_AgBS2
_symmetry_space_group_name_H-M   'P 1'
_cell_length_a   5.75539972
_cell_length_b   5.75539972
_cell_length_c   5.75539972
_cell_angle_alpha   124.22148209
_cell_angle_beta   124.22148209
_cell_angle_gamma   82.83155166
_symmetry_Int_Tables_number   1
_chemical_formula_structural   AgBS2
_chemical_formula_sum   'Ag2 B2 S4'
_cell_volume   125.12970395
_cell_formula_units_Z   2
loop_
 _symmetry_equiv_pos_site_id
 _symmetry_equiv_pos_as_xyz
  1  'x, y, z'
loop_
 _atom_site_type_symbol
 _atom_site_label
 _atom_site_symmetry_multiplicity
 _atom_site_fract_x
 _atom_site_fract_y
 _atom_site_fract_z
 _atom_site_occupancy
  Ag  Ag0  1  0.75000000  0.25000000  0.50000000  1
  Ag  Ag1  1  0.00000000  0.00000000  0.00000000  1
  B  B2  1  0.25000000  0.75000000  0.50000000  1
  B  B3  1  0.50000000  0.50000000  1.00000000  1
  S  S4  1  0.87500000  0.46028413  0.08528413  1
  S  S5  1  0.37500000  0.78971587  0.91471587  1
  S  S6  1  0.21028413  0.12500000  0.58528413  1
  S  S7  1  0.53971587  0.62500000  0.41471587  1
