# generated using pymatgen
data_KTaN2
_symmetry_space_group_name_H-M   'P 1'
_cell_length_a   6.04282938
_cell_length_b   6.04282938
_cell_length_c   6.04282938
_cell_angle_alpha   121.83300935
_cell_angle_beta   121.83300935
_cell_angle_gamma   86.85341312
_symmetry_Int_Tables_number   1
_chemical_formula_structural   KTaN2
_chemical_formula_sum   'K2 Ta2 N4'
_cell_volume   151.45784253
_cell_formula_units_Z   2
loop_
 _symmetry_equiv_pos_site_id
 _symmetry_equiv_pos_as_xyz
  1  'x, y, z'
loop_
 _atom_site_type_symbol
 _atom_site_label
 _atom_site_symmetry_multiplicity
 _atom_site_fract_x
 _atom_site_fract_y
 _atom_site_fract_z
 _atom_site_occupancy
  K  K0  1  0.75000000  0.25000000  0.50000000  1
  K  K1  1  0.00000000  0.00000000  0.00000000  1
  Ta  Ta2  1  0.25000000  0.75000000  0.50000000  1
  Ta  Ta3  1  0.50000000  0.50000000  0.00000000  1
  N  N4  1  0.37500000  0.73734439  0.86234439  1
  N  N5  1  0.26265561  0.12500000  0.63765561  1
  N  N6  1  0.87500000  0.51265561  0.13765561  1
  N  N7  1  0.48734439  0.62500000  0.36234439  1
