# generated using pymatgen
data_Hf2N2O
_symmetry_space_group_name_H-M   'P 1'
_cell_length_a   8.71559749
_cell_length_b   8.72595882
_cell_length_c   8.73349854
_cell_angle_alpha   109.32036827
_cell_angle_beta   109.47209568
_cell_angle_gamma   109.39714552
_symmetry_Int_Tables_number   1
_chemical_formula_structural   Hf2N2O
_chemical_formula_sum   'Hf16 N16 O8'
_cell_volume   512.70930518
_cell_formula_units_Z   8
loop_
 _symmetry_equiv_pos_site_id
 _symmetry_equiv_pos_as_xyz
  1  'x, y, z'
loop_
 _atom_site_type_symbol
 _atom_site_label
 _atom_site_symmetry_multiplicity
 _atom_site_fract_x
 _atom_site_fract_y
 _atom_site_fract_z
 _atom_site_occupancy
  Hf  Hf0  1  0.49593900  0.00281300  0.00789700  1.0
  Hf  Hf1  1  0.28268200  0.24204400  0.02618600  1.0
  Hf  Hf2  1  0.24334200  0.02817500  0.28452200  1.0
  Hf  Hf3  1  0.75124900  0.45627200  0.21272700  1.0
  Hf  Hf4  1  0.52376900  0.28006100  0.74614000  1.0
  Hf  Hf5  1  0.03488500  0.78915800  0.75729700  1.0
  Hf  Hf6  1  0.50578000  0.51365300  0.51606700  1.0
  Hf  Hf7  1  0.01442600  0.50588800  0.00345900  1.0
  Hf  Hf8  1  0.79248300  0.25121800  0.53316200  1.0
  Hf  Hf9  1  0.00119900  0.00809600  0.50056300  1.0
  Hf  Hf10  1  0.21654900  0.74747200  0.45655000  1.0
  Hf  Hf11  1  0.46410500  0.71759200  0.24892600  1.0
  Hf  Hf12  1  0.96457200  0.21720000  0.25537900  1.0
  Hf  Hf13  1  0.25041200  0.53447200  0.79107900  1.0
  Hf  Hf14  1  0.75044100  0.96134700  0.70692500  1.0
  Hf  Hf15  1  0.71365100  0.75149700  0.96536400  1.0
  N  N16  1  0.27375000  0.03180100  0.54547900  1.0
  N  N17  1  0.49314000  0.23273600  0.95799700  1.0
  N  N18  1  0.00821600  0.46386000  0.23578600  1.0
  N  N19  1  0.03469300  0.04512000  0.77114100  1.0
  N  N20  1  0.22927000  0.45410600  0.99188400  1.0
  N  N21  1  0.96482800  0.95263700  0.22241100  1.0
  N  N22  1  0.46200900  0.73390000  0.51071000  1.0
  N  N23  1  0.72458000  0.23539500  0.27161700  1.0
  N  N24  1  0.98748500  0.53303100  0.76142700  1.0
  N  N25  1  0.77131400  0.72857900  0.73773800  1.0
  N  N26  1  0.23720800  0.77181600  0.22401600  1.0
  N  N27  1  0.04809200  0.27343700  0.53218500  1.0
  N  N28  1  0.45298000  0.48347900  0.72442700  1.0
  N  N29  1  0.26196500  0.98760100  0.03501000  1.0
  N  N30  1  0.72752900  0.96787300  0.45670000  1.0
  N  N31  1  0.51239700  0.77522000  0.04300400  1.0
  O  O32  1  0.73754700  0.01355700  0.96228700  1.0
  O  O33  1  0.55046300  0.51192500  0.27816800  1.0
  O  O34  1  0.75581800  0.22684600  0.77380100  1.0
  O  O35  1  0.95057500  0.72280000  0.46495000  1.0
  O  O36  1  0.23241200  0.27532600  0.26290300  1.0
  O  O37  1  0.77298500  0.54611800  0.01142400  1.0
  O  O38  1  0.53475700  0.26163800  0.48702200  1.0
  O  O39  1  0.27050500  0.76424200  0.72567500  1.0
