# generated using pymatgen
data_WSe2
_symmetry_space_group_name_H-M   'P 1'
_cell_length_a   7.42815387
_cell_length_b   7.42815387
_cell_length_c   7.42815387
_cell_angle_alpha   25.84722779
_cell_angle_beta   25.84722779
_cell_angle_gamma   25.84722779
_symmetry_Int_Tables_number   1
_chemical_formula_structural   WSe2
_chemical_formula_sum   'W1 Se2'
_cell_volume   68.61046594
_cell_formula_units_Z   1
loop_
 _symmetry_equiv_pos_site_id
 _symmetry_equiv_pos_as_xyz
  1  'x, y, z'
loop_
 _atom_site_type_symbol
 _atom_site_label
 _atom_site_symmetry_multiplicity
 _atom_site_fract_x
 _atom_site_fract_y
 _atom_site_fract_z
 _atom_site_occupancy
  W  W0  1  0.99932994  0.99932994  0.99932994  1
  Se  Se1  1  0.58787008  0.58787008  0.58787008  1
  Se  Se2  1  0.74409996  0.74409996  0.74409996  1
