# generated using pymatgen
data_Al2TeS2
_symmetry_space_group_name_H-M   'P 1'
_cell_length_a   7.20006659
_cell_length_b   7.20006659
_cell_length_c   7.20006659
_cell_angle_alpha   120.39614368
_cell_angle_beta   120.39614368
_cell_angle_gamma   89.31521766
_symmetry_Int_Tables_number   1
_chemical_formula_structural   Al2TeS2
_chemical_formula_sum   'Al4 Te2 S4'
_cell_volume   262.33284573
_cell_formula_units_Z   2
loop_
 _symmetry_equiv_pos_site_id
 _symmetry_equiv_pos_as_xyz
  1  'x, y, z'
loop_
 _atom_site_type_symbol
 _atom_site_label
 _atom_site_symmetry_multiplicity
 _atom_site_fract_x
 _atom_site_fract_y
 _atom_site_fract_z
 _atom_site_occupancy
  Al  Al0  1  0.91082527  0.62852623  0.71770096  1
  Al  Al1  1  0.94312431  0.16082527  0.78229904  1
  Al  Al2  1  0.91082527  0.19312431  0.28229904  1
  Al  Al3  1  0.37852623  0.16082527  0.21770096  1
  Te  Te4  1  0.50365515  0.00365515  0.50000000  1
  Te  Te5  1  0.75365515  0.75365515  -0.00000000  1
  S  S6  1  0.12178970  0.38315414  0.73863557  1
  S  S7  1  0.13315414  0.89451857  0.76136443  1
  S  S8  1  0.13315414  0.37178970  0.23863556  1
  S  S9  1  0.64451857  0.38315414  0.26136444  1
