# generated using pymatgen
data_Mg(AlTe2)2
_symmetry_space_group_name_H-M   'P 1'
_cell_length_a   7.42530732
_cell_length_b   7.42530732
_cell_length_c   7.42530732
_cell_angle_alpha   130.04762184
_cell_angle_beta   130.04762184
_cell_angle_gamma   73.33064491
_symmetry_Int_Tables_number   1
_chemical_formula_structural   Mg(AlTe2)2
_chemical_formula_sum   'Mg1 Al2 Te4'
_cell_volume   234.19302210
_cell_formula_units_Z   1
loop_
 _symmetry_equiv_pos_site_id
 _symmetry_equiv_pos_as_xyz
  1  'x, y, z'
loop_
 _atom_site_type_symbol
 _atom_site_label
 _atom_site_symmetry_multiplicity
 _atom_site_fract_x
 _atom_site_fract_y
 _atom_site_fract_z
 _atom_site_occupancy
  Mg  Mg0  1  0.00000000  0.00000000  0.00000000  1
  Al  Al1  1  0.25000000  0.75000000  0.50000000  1
  Al  Al2  1  0.50000000  0.50000000  -0.00000000  1
  Te  Te3  1  0.40511331  0.88060587  0.01445797  1
  Te  Te4  1  0.11939413  0.13385210  0.52450744  1
  Te  Te5  1  0.60934466  0.59488669  0.47549256  1
  Te  Te6  1  0.86614790  0.39065534  0.98554203  1
