# generated using pymatgen
data_YHI2
_symmetry_space_group_name_H-M   'P 1'
_cell_length_a   4.00729032
_cell_length_b   4.00729032
_cell_length_c   8.53420794
_cell_angle_alpha   89.57079499
_cell_angle_beta   103.43300999
_cell_angle_gamma   119.99999998
_symmetry_Int_Tables_number   1
_chemical_formula_structural   YHI2
_chemical_formula_sum   'Y1 H1 I2'
_cell_volume   114.47337088
_cell_formula_units_Z   1
loop_
 _symmetry_equiv_pos_site_id
 _symmetry_equiv_pos_as_xyz
  1  'x, y, z'
loop_
 _atom_site_type_symbol
 _atom_site_label
 _atom_site_symmetry_multiplicity
 _atom_site_fract_x
 _atom_site_fract_y
 _atom_site_fract_z
 _atom_site_occupancy
  Y  Y0  1  0.95884635  0.61856574  0.46312696  1
  H  H1  1  0.62567797  0.95178597  0.46303753  1
  I  I2  1  0.45959237  0.36469094  0.72051604  1
  I  I3  1  0.12498474  0.20574560  0.20574560  1
