# generated using pymatgen
data_Zn2SiS4
_symmetry_space_group_name_H-M   'P 1'
_cell_length_a   6.24861902
_cell_length_b   6.24861902
_cell_length_c   5.52245638
_cell_angle_alpha   63.77835818
_cell_angle_beta   63.77835818
_cell_angle_gamma   52.44221837
_symmetry_Int_Tables_number   1
_chemical_formula_structural   Zn2SiS4
_chemical_formula_sum   'Zn2 Si1 S4'
_cell_volume   148.76401867
_cell_formula_units_Z   1
loop_
 _symmetry_equiv_pos_site_id
 _symmetry_equiv_pos_as_xyz
  1  'x, y, z'
loop_
 _atom_site_type_symbol
 _atom_site_label
 _atom_site_symmetry_multiplicity
 _atom_site_fract_x
 _atom_site_fract_y
 _atom_site_fract_z
 _atom_site_occupancy
  Zn  Zn0  1  0.50185712  0.99822522  0.74992280  1
  Zn  Zn1  1  0.00177478  0.49814288  0.25007720  1
  Si  Si2  1  0.75166951  0.24833049  -0.00000000  1
  S  S3  1  0.63075452  0.59704180  0.12089762  1
  S  S4  1  0.10040060  0.12747572  0.65135326  1
  S  S5  1  0.87252428  0.89959940  0.34864674  1
  S  S6  1  0.40295820  0.36924548  0.87910238  1
