# generated using pymatgen
data_Ti(CuTe)4
_symmetry_space_group_name_H-M   'P 1'
_cell_length_a   7.41118554
_cell_length_b   7.41118554
_cell_length_c   7.41118554
_cell_angle_alpha   132.33547342
_cell_angle_beta   132.33547342
_cell_angle_gamma   69.69969639
_symmetry_Int_Tables_number   1
_chemical_formula_structural   Ti(CuTe)4
_chemical_formula_sum   'Ti1 Cu4 Te4'
_cell_volume   218.15991523
_cell_formula_units_Z   1
loop_
 _symmetry_equiv_pos_site_id
 _symmetry_equiv_pos_as_xyz
  1  'x, y, z'
loop_
 _atom_site_type_symbol
 _atom_site_label
 _atom_site_symmetry_multiplicity
 _atom_site_fract_x
 _atom_site_fract_y
 _atom_site_fract_z
 _atom_site_occupancy
  Ti  Ti0  1  0.00000000  0.00000000  0.00000000  1
  Cu  Cu1  1  0.50000000  1.00000000  0.50000000  1
  Cu  Cu2  1  1.00000000  0.50000000  0.50000000  1
  Cu  Cu3  1  0.23526884  0.23526884  0.00000000  1
  Cu  Cu4  1  0.76473117  0.76473117  0.00000000  1
  Te  Te5  1  0.86697609  0.38362521  1.00000000  1
  Te  Te6  1  0.61637479  0.61637479  0.48335088  1
  Te  Te7  1  0.13302391  0.13302391  0.51664912  1
  Te  Te8  1  0.38362521  0.86697609  1.00000000  1
