# generated using pymatgen
data_LiCl
_symmetry_space_group_name_H-M   'P 1'
_cell_length_a   3.54804763
_cell_length_b   3.54804763
_cell_length_c   9.13557312
_cell_angle_alpha   78.82511850
_cell_angle_beta   78.82511850
_cell_angle_gamma   59.98047652
_symmetry_Int_Tables_number   1
_chemical_formula_structural   LiCl
_chemical_formula_sum   'Li3 Cl3'
_cell_volume   97.05224285
_cell_formula_units_Z   3
loop_
 _symmetry_equiv_pos_site_id
 _symmetry_equiv_pos_as_xyz
  1  'x, y, z'
loop_
 _atom_site_type_symbol
 _atom_site_label
 _atom_site_symmetry_multiplicity
 _atom_site_fract_x
 _atom_site_fract_y
 _atom_site_fract_z
 _atom_site_occupancy
  Li  Li0  1  0.22266076  0.22266076  0.22220287  1
  Li  Li1  1  0.10945401  0.10945402  0.55856920  1
  Li  Li2  1  0.33409489  0.33409489  0.88588192  1
  Cl  Cl3  1  0.94515319  0.94515319  0.05476422  1
  Cl  Cl4  1  0.72200141  0.72200141  0.72219835  1
  Cl  Cl5  1  0.49997223  0.49997223  0.38971643  1
