# generated using pymatgen
data_Y2S3
_symmetry_space_group_name_H-M   'P 1'
_cell_length_a   13.57107155
_cell_length_b   13.57107155
_cell_length_c   13.57107155
_cell_angle_alpha   144.84441167
_cell_angle_beta   144.84441167
_cell_angle_gamma   50.56644697
_symmetry_Int_Tables_number   1
_chemical_formula_structural   Y2S3
_chemical_formula_sum   'Y16 S24'
_cell_volume   824.49068105
_cell_formula_units_Z   8
loop_
 _symmetry_equiv_pos_site_id
 _symmetry_equiv_pos_as_xyz
  1  'x, y, z'
loop_
 _atom_site_type_symbol
 _atom_site_label
 _atom_site_symmetry_multiplicity
 _atom_site_fract_x
 _atom_site_fract_y
 _atom_site_fract_z
 _atom_site_occupancy
  Y  Y0  1  0.17598144  0.29767385  0.39518910  1
  Y  Y1  1  0.90248475  0.78079234  0.60481090  1
  Y  Y2  1  0.58414173  0.08414173  0.50000000  1
  Y  Y3  1  0.37500000  0.74365286  0.86865286  1
  Y  Y4  1  0.84751525  0.95232615  0.37830759  1
  Y  Y5  1  0.16585827  0.16585827  0.00000000  1
  Y  Y6  1  0.87500000  0.50634714  0.13134714  1
  Y  Y7  1  0.57401856  0.46920766  0.62169241  1
  Y  Y8  1  0.04767385  0.42598144  0.89518910  1
  Y  Y9  1  0.83414173  0.83414173  0.00000000  1
  Y  Y10  1  0.49365286  0.62500000  0.36865286  1
  Y  Y11  1  0.25634714  0.12500000  0.63134714  1
  Y  Y12  1  0.53079234  0.15248475  0.10481090  1
  Y  Y13  1  0.91585827  0.41585827  0.50000000  1
  Y  Y14  1  0.70232615  0.09751525  0.87830759  1
  Y  Y15  1  0.21920766  0.82401856  0.12169241  1
  S  S16  1  0.88942971  0.13608987  0.89268631  1
  S  S17  1  0.53244003  0.42343922  0.74625242  1
  S  S18  1  0.24340356  0.99674340  0.10731369  1
  S  S19  1  0.50659644  0.11391013  0.25333984  1
  S  S20  1  0.86057029  0.25325660  0.74666016  1
  S  S21  1  0.67718680  0.78618761  0.25374758  1
  S  S22  1  0.56037752  0.81307990  0.90637394  1
  S  S23  1  0.07281320  0.82656078  0.60900081  1
  S  S24  1  0.18692010  0.09329404  0.74729762  1
  S  S25  1  0.90670596  0.65400358  0.09362606  1
  S  S26  1  0.21755997  0.46381239  0.39099919  1
  S  S27  1  0.17343922  0.78244003  0.24625242  1
  S  S28  1  0.53618761  0.92718680  0.75374758  1
  S  S29  1  0.34599642  0.43962248  0.25270238  1
  S  S30  1  0.21381239  0.46755997  0.89099919  1
  S  S31  1  0.74674340  0.49340356  0.60731369  1
  S  S32  1  0.86391013  0.75659644  0.75333984  1
  S  S33  1  0.57656078  0.32281320  0.10900081  1
  S  S34  1  0.88608987  0.13942971  0.39268631  1
  S  S35  1  0.84329404  0.43692010  0.24729762  1
  S  S36  1  0.18962248  0.59599642  0.75270238  1
  S  S37  1  0.00325660  0.11057029  0.24666016  1
  S  S38  1  0.40400358  0.15670596  0.59362606  1
  S  S39  1  0.56307990  0.81037752  0.40637394  1
