# generated using pymatgen
data_Zr6Nb2O17
_symmetry_space_group_name_H-M   'P 1'
_cell_length_a   20.81539364
_cell_length_b   20.81539364
_cell_length_c   4.98104606
_cell_angle_alpha   83.87422296
_cell_angle_beta   83.87422296
_cell_angle_gamma   14.42854728
_symmetry_Int_Tables_number   1
_chemical_formula_structural   Zr6Nb2O17
_chemical_formula_sum   'Zr12 Nb4 O34'
_cell_volume   534.64171052
_cell_formula_units_Z   2
loop_
 _symmetry_equiv_pos_site_id
 _symmetry_equiv_pos_as_xyz
  1  'x, y, z'
loop_
 _atom_site_type_symbol
 _atom_site_label
 _atom_site_symmetry_multiplicity
 _atom_site_fract_x
 _atom_site_fract_y
 _atom_site_fract_z
 _atom_site_occupancy
  Zr  Zr0  1  0.76817728  0.23182271  0.50000000  1
  Zr  Zr1  1  0.26388554  0.73611446  0.00000000  1
  Zr  Zr2  1  0.94950848  0.18024910  0.96002888  1
  Zr  Zr3  1  0.57765095  0.67799962  0.89284345  1
  Zr  Zr4  1  0.08151027  0.17308461  0.36864957  1
  Zr  Zr5  1  0.56654148  0.81444903  0.30503353  1
  Zr  Zr6  1  0.70541933  0.79236379  0.76197780  1
  Zr  Zr7  1  0.20763621  0.29458067  0.23802220  1
  Zr  Zr8  1  0.18555097  0.43345852  0.69496647  1
  Zr  Zr9  1  0.82691539  0.91848973  0.63135043  1
  Zr  Zr10  1  0.32200038  0.42234905  0.10715655  1
  Zr  Zr11  1  0.81975090  0.05049152  0.03997112  1
  Nb  Nb12  1  0.45290446  0.67787193  0.41740764  1
  Nb  Nb13  1  0.06777692  0.30882675  0.84343232  1
  Nb  Nb14  1  0.69117325  0.93222308  0.15656768  1
  Nb  Nb15  1  0.32212807  0.54709554  0.58259236  1
  O  O16  1  0.46194860  0.58969639  0.66596027  1
  O  O17  1  0.96358173  0.08342853  0.78649476  1
  O  O18  1  0.14018914  0.93008581  0.25028699  1
  O  O19  1  0.62959144  0.44013316  0.19029686  1
  O  O20  1  0.15761581  0.00901806  0.59951367  1
  O  O21  1  0.64794767  0.52132799  0.72041232  1
  O  O22  1  0.27963711  0.91154768  0.11191695  1
  O  O23  1  0.76620008  0.42448466  0.21180834  1
  O  O24  1  0.94723836  0.33602579  0.71487496  1
  O  O25  1  0.44216071  0.84376351  0.52760140  1
  O  O26  1  0.30738020  0.00926686  0.05391813  1
  O  O27  1  0.81479721  0.50205812  0.14969207  1
  O  O28  1  0.20990641  0.18369464  0.48503693  1
  O  O29  1  0.73568273  0.65874168  0.67107404  1
  O  O30  1  0.89875810  0.53968041  0.08321517  1
  O  O31  1  0.37592392  0.06050967  0.97763663  1
  O  O32  1  0.07686583  0.43391927  0.61221978  1
  O  O33  1  0.56608073  0.92313417  0.38778022  1
  O  O34  1  0.46031959  0.10124190  0.91678483  1
  O  O35  1  0.93949033  0.62407608  0.02236337  1
  O  O36  1  0.81630536  0.79009359  0.51496307  1
  O  O37  1  0.34125832  0.26431727  0.32892596  1
  O  O38  1  0.99073314  0.69261980  0.94608187  1
  O  O39  1  0.49794188  0.18520279  0.85030793  1
  O  O40  1  0.66397421  0.05276164  0.28512504  1
  O  O41  1  0.15623649  0.55783929  0.47239860  1
  O  O42  1  0.08845232  0.72036289  0.88808305  1
  O  O43  1  0.57551534  0.23379992  0.78819166  1
  O  O44  1  0.47867201  0.35205233  0.27958768  1
  O  O45  1  0.99098194  0.84238419  0.40048633  1
  O  O46  1  0.06991419  0.85981086  0.74971301  1
  O  O47  1  0.55986684  0.37040856  0.80970314  1
  O  O48  1  0.41030361  0.53805140  0.33403973  1
  O  O49  1  0.91657147  0.03641827  0.21350524  1
