# generated using pymatgen
data_NaY(SeO3)2
_symmetry_space_group_name_H-M   'P 1'
_cell_length_a   12.76500000
_cell_length_b   8.52500000
_cell_length_c   5.39700000
_cell_angle_alpha   90.00000000
_cell_angle_beta   90.00000000
_cell_angle_gamma   90.00000000
_symmetry_Int_Tables_number   1
_chemical_formula_structural   NaY(SeO3)2
_chemical_formula_sum   'Na4 Y4 Se8 O24'
_cell_volume   587.31031013
_cell_formula_units_Z   4
loop_
 _symmetry_equiv_pos_site_id
 _symmetry_equiv_pos_as_xyz
  1  'x, y, z'
loop_
 _atom_site_type_symbol
 _atom_site_label
 _atom_site_symmetry_multiplicity
 _atom_site_fract_x
 _atom_site_fract_y
 _atom_site_fract_z
 _atom_site_occupancy
  Na  Na0  1  0.61940000  0.99310000  0.78510000  1.0
  Na  Na1  1  0.11940000  0.50690000  0.78510000  1.0
  Na  Na2  1  0.38060000  0.00690000  0.28510000  1.0
  Na  Na3  1  0.88060000  0.49310000  0.28510000  1.0
  Y  Y4  1  0.08508000  0.17579000  0.25020000  1.0
  Y  Y5  1  0.91492000  0.82421000  0.75020000  1.0
  Y  Y6  1  0.41492000  0.67579000  0.75020000  1.0
  Y  Y7  1  0.58508000  0.32421000  0.25020000  1.0
  Se  Se8  1  0.20358000  0.96945000  0.75310000  1.0
  Se  Se9  1  0.29642000  0.46945000  0.25310000  1.0
  Se  Se10  1  0.41944000  0.26504000  0.79840000  1.0
  Se  Se11  1  0.58056000  0.73496000  0.29840000  1.0
  Se  Se12  1  0.70358000  0.53055000  0.75310000  1.0
  Se  Se13  1  0.08056000  0.76504000  0.29840000  1.0
  Se  Se14  1  0.79642000  0.03055000  0.25310000  1.0
  Se  Se15  1  0.91944000  0.23496000  0.79840000  1.0
  O  O16  1  0.48500000  0.15040000  0.99320000  1.0
  O  O17  1  0.79820000  0.87460000  0.05610000  1.0
  O  O18  1  0.67320000  0.09390000  0.20140000  1.0
  O  O19  1  0.51680000  0.56460000  0.37600000  1.0
  O  O20  1  0.52530000  0.78370000  0.02020000  1.0
  O  O21  1  0.51500000  0.84960000  0.49320000  1.0
  O  O22  1  0.28580000  0.54860000  0.53460000  1.0
  O  O23  1  0.29820000  0.62540000  0.05610000  1.0
  O  O24  1  0.02530000  0.71630000  0.02020000  1.0
  O  O25  1  0.32680000  0.90610000  0.70140000  1.0
  O  O26  1  0.21420000  0.04860000  0.03460000  1.0
  O  O27  1  0.47470000  0.21630000  0.52020000  1.0
  O  O28  1  0.82680000  0.59390000  0.70140000  1.0
  O  O29  1  0.17320000  0.40610000  0.20140000  1.0
  O  O30  1  0.98500000  0.34960000  0.99320000  1.0
  O  O31  1  0.01680000  0.93540000  0.37600000  1.0
  O  O32  1  0.70180000  0.37460000  0.55610000  1.0
  O  O33  1  0.48320000  0.43540000  0.87600000  1.0
  O  O34  1  0.01500000  0.65040000  0.49320000  1.0
  O  O35  1  0.71420000  0.45140000  0.03460000  1.0
  O  O36  1  0.20180000  0.12540000  0.55610000  1.0
  O  O37  1  0.78580000  0.95140000  0.53460000  1.0
  O  O38  1  0.97470000  0.28370000  0.52020000  1.0
  O  O39  1  0.98320000  0.06460000  0.87600000  1.0
