# generated using pymatgen
data_BeZnS2
_symmetry_space_group_name_H-M   'P 1'
_cell_length_a   6.26939763
_cell_length_b   6.26939763
_cell_length_c   6.26939763
_cell_angle_alpha   131.16791838
_cell_angle_beta   131.16791838
_cell_angle_gamma   71.54642744
_symmetry_Int_Tables_number   1
_chemical_formula_structural   BeZnS2
_chemical_formula_sum   'Be2 Zn2 S4'
_cell_volume   136.64520871
_cell_formula_units_Z   2
loop_
 _symmetry_equiv_pos_site_id
 _symmetry_equiv_pos_as_xyz
  1  'x, y, z'
loop_
 _atom_site_type_symbol
 _atom_site_label
 _atom_site_symmetry_multiplicity
 _atom_site_fract_x
 _atom_site_fract_y
 _atom_site_fract_z
 _atom_site_occupancy
  Be  Be0  1  0.25000000  0.75000000  0.50000000  1
  Be  Be1  1  0.50000000  0.50000000  -0.00000000  1
  Zn  Zn2  1  0.75000000  0.25000000  0.50000000  1
  Zn  Zn3  1  0.00000000  0.00000000  0.00000000  1
  S  S4  1  0.16188817  0.62500000  0.03688817  1
  S  S5  1  0.58811183  0.12500000  0.96311183  1
  S  S6  1  0.37500000  0.41188817  0.53688817  1
  S  S7  1  0.87500000  0.83811183  0.46311183  1
