# generated using pymatgen
data_BeSiOs
_symmetry_space_group_name_H-M   'P 1'
_cell_length_a   4.36819167
_cell_length_b   4.36819167
_cell_length_c   4.36819167
_cell_angle_alpha   139.76285105
_cell_angle_beta   139.76285105
_cell_angle_gamma   58.21355299
_symmetry_Int_Tables_number   1
_chemical_formula_structural   BeSiOs
_chemical_formula_sum   'Be1 Si1 Os1'
_cell_volume   34.46362600
_cell_formula_units_Z   1
loop_
 _symmetry_equiv_pos_site_id
 _symmetry_equiv_pos_as_xyz
  1  'x, y, z'
loop_
 _atom_site_type_symbol
 _atom_site_label
 _atom_site_symmetry_multiplicity
 _atom_site_fract_x
 _atom_site_fract_y
 _atom_site_fract_z
 _atom_site_occupancy
  Be  Be0  1  0.99991614  0.99991614  0.00000000  1
  Si  Si1  1  0.66410936  0.66410936  0.00000000  1
  Os  Os2  1  0.33597450  0.33597450  0.00000000  1
