# generated using pymatgen
data_Li6Ca12W4N16O3
_symmetry_space_group_name_H-M   'P 1'
_cell_length_a   11.23050765
_cell_length_b   11.23050765
_cell_length_c   11.23050765
_cell_angle_alpha   109.47122063
_cell_angle_beta   109.47122063
_cell_angle_gamma   109.47122063
_symmetry_Int_Tables_number   1
_chemical_formula_structural   Li6Ca12W4N16O3
_chemical_formula_sum   'Li12 Ca24 W8 N32 O6'
_cell_volume   1090.37597450
_cell_formula_units_Z   2
loop_
 _symmetry_equiv_pos_site_id
 _symmetry_equiv_pos_as_xyz
  1  'x, y, z'
loop_
 _atom_site_type_symbol
 _atom_site_label
 _atom_site_symmetry_multiplicity
 _atom_site_fract_x
 _atom_site_fract_y
 _atom_site_fract_z
 _atom_site_occupancy
  Li  Li0  1  0.47659213  0.75000000  0.22659213  1
  Li  Li1  1  0.77340787  0.75000000  0.52340787  1
  Li  Li2  1  0.52340787  0.77340787  0.75000000  1
  Li  Li3  1  0.25000000  0.97659213  0.72659213  1
  Li  Li4  1  0.97659213  0.72659213  0.25000000  1
  Li  Li5  1  0.75000000  0.52340787  0.77340787  1
  Li  Li6  1  0.02340787  0.25000000  0.27340787  1
  Li  Li7  1  0.25000000  0.27340787  0.02340787  1
  Li  Li8  1  0.75000000  0.22659213  0.47659213  1
  Li  Li9  1  0.27340787  0.02340787  0.25000000  1
  Li  Li10  1  0.22659213  0.47659213  0.75000000  1
  Li  Li11  1  0.72659213  0.25000000  0.97659213  1
  Ca  Ca12  1  0.55714694  0.67041945  0.96181086  1
  Ca  Ca13  1  0.90466392  0.11327251  0.94285306  1
  Ca  Ca14  1  0.96181086  0.55714694  0.67041945  1
  Ca  Ca15  1  0.29139141  0.82958055  0.38672749  1
  Ca  Ca16  1  0.67041945  0.96181086  0.55714694  1
  Ca  Ca17  1  0.53818914  0.20860859  0.59533608  1
  Ca  Ca18  1  0.88672749  0.32958055  0.79139141  1
  Ca  Ca19  1  0.61327251  0.40466392  0.44285306  1
  Ca  Ca20  1  0.03818914  0.09533608  0.70860859  1
  Ca  Ca21  1  0.32958055  0.79139141  0.88672749  1
  Ca  Ca22  1  0.70860859  0.03818914  0.09533608  1
  Ca  Ca23  1  0.44285306  0.61327251  0.40466392  1
  Ca  Ca24  1  0.09533608  0.70860859  0.03818914  1
  Ca  Ca25  1  0.05714694  0.46181086  0.17041945  1
  Ca  Ca26  1  0.17041945  0.05714694  0.46181086  1
  Ca  Ca27  1  0.79139141  0.88672749  0.32958055  1
  Ca  Ca28  1  0.40466392  0.44285306  0.61327251  1
  Ca  Ca29  1  0.20860859  0.59533608  0.53818914  1
  Ca  Ca30  1  0.94285306  0.90466392  0.11327251  1
  Ca  Ca31  1  0.59533608  0.53818914  0.20860859  1
  Ca  Ca32  1  0.82958055  0.38672749  0.29139141  1
  Ca  Ca33  1  0.11327251  0.94285306  0.90466392  1
  Ca  Ca34  1  0.38672749  0.29139141  0.82958055  1
  Ca  Ca35  1  0.46181086  0.17041945  0.05714694  1
  W  W36  1  0.50000000  -0.00000000  0.22548042  1
  W  W37  1  0.72548042  0.50000000  1.00000000  1
  W  W38  1  0.00000000  0.72548042  0.50000000  1
  W  W39  1  0.77451958  0.77451958  0.77451958  1
  W  W40  1  0.00000000  0.22548042  0.50000000  1
  W  W41  1  0.27451958  0.27451958  0.27451958  1
  W  W42  1  0.22548042  0.50000000  0.00000000  1
  W  W43  1  0.50000000  0.00000000  0.72548042  1
  N  N44  1  0.50000000  0.00000000  0.39189278  1
  N  N45  1  0.89189278  0.50000000  1.00000000  1
  N  N46  1  0.00000000  0.89189278  0.50000000  1
  N  N47  1  0.60810722  0.60810722  0.60810722  1
  N  N48  1  0.00000000  0.39189278  0.50000000  1
  N  N49  1  0.10810722  0.10810722  0.10810722  1
  N  N50  1  0.39189278  0.50000000  0.00000000  1
  N  N51  1  0.50000000  0.00000000  0.89189278  1
  N  N52  1  0.55210153  0.86755309  0.13457512  1
  N  N53  1  0.08247359  0.31545156  0.94789847  1
  N  N54  1  0.13457512  0.55210153  0.86755309  1
  N  N55  1  0.26702203  0.63244691  0.18454844  1
  N  N56  1  0.86755309  0.13457512  0.55210153  1
  N  N57  1  0.36542488  0.23297797  0.41752641  1
  N  N58  1  0.68454844  0.13244691  0.76702203  1
  N  N59  1  0.81545156  0.58247359  0.44789847  1
  N  N60  1  0.86542488  0.91752641  0.73297797  1
  N  N61  1  0.13244691  0.76702203  0.68454844  1
  N  N62  1  0.73297797  0.86542488  0.91752641  1
  N  N63  1  0.44789847  0.81545156  0.58247359  1
  N  N64  1  0.91752641  0.73297797  0.86542488  1
  N  N65  1  0.05210153  0.63457512  0.36755309  1
  N  N66  1  0.36755309  0.05210153  0.63457512  1
  N  N67  1  0.76702203  0.68454844  0.13244691  1
  N  N68  1  0.58247359  0.44789847  0.81545156  1
  N  N69  1  0.23297797  0.41752641  0.36542488  1
  N  N70  1  0.94789847  0.08247359  0.31545156  1
  N  N71  1  0.41752641  0.36542488  0.23297797  1
  N  N72  1  0.63244691  0.18454844  0.26702203  1
  N  N73  1  0.31545156  0.94789847  0.08247359  1
  N  N74  1  0.18454844  0.26702203  0.63244691  1
  N  N75  1  0.63457512  0.36755309  0.05210153  1
  O  O76  1  0.75000000  0.37500000  0.62500000  1
  O  O77  1  0.37500000  0.62500000  0.75000000  1
  O  O78  1  0.12500000  0.87500000  0.25000000  1
  O  O79  1  0.62500000  0.75000000  0.37500000  1
  O  O80  1  0.87500000  0.25000000  0.12500000  1
  O  O81  1  0.25000000  0.12500000  0.87500000  1
