# generated using pymatgen
data_Ti3(BiO3)4
_symmetry_space_group_name_H-M   'P 1'
_cell_length_a   16.78788548
_cell_length_b   16.78788548
_cell_length_c   5.43967199
_cell_angle_alpha   89.96992995
_cell_angle_beta   89.96992995
_cell_angle_gamma   18.46496739
_symmetry_Int_Tables_number   1
_chemical_formula_structural   Ti3(BiO3)4
_chemical_formula_sum   'Ti6 Bi8 O24'
_cell_volume   485.56420254
_cell_formula_units_Z   2
loop_
 _symmetry_equiv_pos_site_id
 _symmetry_equiv_pos_as_xyz
  1  'x, y, z'
loop_
 _atom_site_type_symbol
 _atom_site_label
 _atom_site_symmetry_multiplicity
 _atom_site_fract_x
 _atom_site_fract_y
 _atom_site_fract_z
 _atom_site_occupancy
  Ti  Ti0  1  0.00170094  0.49465251  0.47706322  1
  Ti  Ti1  1  0.87430168  0.36918987  0.46993818  1
  Ti  Ti2  1  0.62714420  0.13103565  0.97534868  1
  Ti  Ti3  1  0.13103565  0.62714420  0.47534868  1
  Ti  Ti4  1  0.36918987  0.87430168  0.96993818  1
  Ti  Ti5  1  0.49465251  0.00170094  0.97706322  1
  Bi  Bi6  1  0.29926271  0.78121341  0.54044644  1
  Bi  Bi7  1  0.21389336  0.71256063  0.03296893  1
  Bi  Bi8  1  0.78121341  0.29926271  0.04044644  1
  Bi  Bi9  1  0.57176962  0.06190043  0.52264563  1
  Bi  Bi10  1  0.71256063  0.21389336  0.53296893  1
  Bi  Bi11  1  0.43619172  0.93133394  0.51634587  1
  Bi  Bi12  1  0.93133394  0.43619172  0.01634587  1
  Bi  Bi13  1  0.06190043  0.57176962  0.02264563  1
  O  O14  1  0.70456088  0.77162146  0.23080259  1
  O  O15  1  0.64051010  0.22266663  0.97216947  1
  O  O16  1  0.07096916  0.17813192  0.15194042  1
  O  O17  1  0.36391273  0.01517516  0.92992503  1
  O  O18  1  0.49891860  0.50232158  0.26312075  1
  O  O19  1  0.98994523  0.62211001  0.43428052  1
  O  O20  1  0.01517516  0.36391273  0.42992503  1
  O  O21  1  0.67100698  0.60716587  0.73179069  1
  O  O22  1  0.62211001  0.98994523  0.93428052  1
  O  O23  1  0.37478651  0.76272616  0.96184892  1
  O  O24  1  0.34316811  0.37855962  0.73050371  1
  O  O25  1  0.22266663  0.64051010  0.47216947  1
  O  O26  1  0.21101220  0.30041768  0.15655724  1
  O  O27  1  0.83545719  0.90812310  0.67712445  1
  O  O28  1  0.17813192  0.07096916  0.65194042  1
  O  O29  1  0.99885274  0.00292676  0.26748128  1
  O  O30  1  0.37855962  0.34316811  0.23050371  1
  O  O31  1  0.76272616  0.37478651  0.46184892  1
  O  O32  1  0.30041768  0.21101220  0.65655724  1
  O  O33  1  0.50232158  0.49891860  0.76312075  1
  O  O34  1  0.60716587  0.67100698  0.23179069  1
  O  O35  1  0.00292676  0.99885274  0.76748128  1
  O  O36  1  0.90812310  0.83545719  0.17712445  1
  O  O37  1  0.77162146  0.70456088  0.73080259  1
