# generated using pymatgen
data_SiO2
_symmetry_space_group_name_H-M   'P 1'
_cell_length_a   4.68100000
_cell_length_b   4.68100000
_cell_length_c   5.19300000
_cell_angle_alpha   90.00000000
_cell_angle_beta   90.00000000
_cell_angle_gamma   120.00000000
_symmetry_Int_Tables_number   1
_chemical_formula_structural   SiO2
_chemical_formula_sum   'Si3 O6'
_cell_volume   98.54310368
_cell_formula_units_Z   3
loop_
 _symmetry_equiv_pos_site_id
 _symmetry_equiv_pos_as_xyz
  1  'x, y, z'
loop_
 _atom_site_type_symbol
 _atom_site_label
 _atom_site_symmetry_multiplicity
 _atom_site_fract_x
 _atom_site_fract_y
 _atom_site_fract_z
 _atom_site_occupancy
  Si  Si0  1  0.55200000  0.55200000  0.00000000  1.0
  Si  Si1  1  0.00000000  0.44800000  0.33333333  1.0
  Si  Si2  1  0.44800000  0.00000000  0.66666667  1.0
  O  O3  1  0.29740000  0.39610000  0.23330000  1.0
  O  O4  1  0.60390000  0.90130000  0.89996667  1.0
  O  O5  1  0.09870000  0.70260000  0.56663333  1.0
  O  O6  1  0.39610000  0.29740000  0.76670000  1.0
  O  O7  1  0.70260000  0.09870000  0.43336667  1.0
  O  O8  1  0.90130000  0.60390000  0.10003333  1.0
