# generated using pymatgen
data_LiMgB3(H9N)2
_symmetry_space_group_name_H-M   'P 1'
_cell_length_a   7.66135273
_cell_length_b   7.66135273
_cell_length_c   7.81158600
_cell_angle_alpha   90.00000000
_cell_angle_beta   90.00000000
_cell_angle_gamma   120.00000000
_symmetry_Int_Tables_number   1
_chemical_formula_structural   LiMgB3(H9N)2
_chemical_formula_sum   'Li2 Mg2 B6 H36 N4'
_cell_volume   397.08251662
_cell_formula_units_Z   2
loop_
 _symmetry_equiv_pos_site_id
 _symmetry_equiv_pos_as_xyz
  1  'x, y, z'
loop_
 _atom_site_type_symbol
 _atom_site_label
 _atom_site_symmetry_multiplicity
 _atom_site_fract_x
 _atom_site_fract_y
 _atom_site_fract_z
 _atom_site_occupancy
  Li  Li0  1  0.00000000  0.00000000  0.79199400  1.0
  Li  Li1  1  0.00000000  0.00000000  0.29199400  1.0
  Mg  Mg2  1  0.66666667  0.33333333  0.52258200  1.0
  Mg  Mg3  1  0.33333333  0.66666667  0.02258200  1.0
  B  B4  1  0.95096800  0.69554600  0.52892800  1.0
  B  B5  1  0.74457800  0.04903200  0.52892800  1.0
  B  B6  1  0.30445400  0.25542200  0.52892800  1.0
  B  B7  1  0.04903200  0.30445400  0.02892800  1.0
  B  B8  1  0.25542200  0.95096800  0.02892800  1.0
  B  B9  1  0.69554600  0.74457800  0.02892800  1.0
  H  H10  1  0.95433100  0.20053900  0.90705700  1.0
  H  H11  1  0.79946100  0.75379200  0.90705700  1.0
  H  H12  1  0.24620800  0.04566900  0.90705700  1.0
  H  H13  1  0.69553300  0.46940100  0.84301900  1.0
  H  H14  1  0.77386800  0.30446700  0.84301900  1.0
  H  H15  1  0.53059900  0.22613200  0.84301900  1.0
  H  H16  1  0.31815900  0.53543700  0.70251200  1.0
  H  H17  1  0.21727800  0.68184100  0.70251200  1.0
  H  H18  1  0.46456300  0.78272200  0.70251200  1.0
  H  H19  1  0.01625500  0.78222900  0.66501800  1.0
  H  H20  1  0.21777100  0.23402600  0.66501800  1.0
  H  H21  1  0.76597400  0.98374500  0.66501800  1.0
  H  H22  1  0.97398000  0.54747700  0.52828300  1.0
  H  H23  1  0.45252300  0.42650300  0.52828300  1.0
  H  H24  1  0.57349700  0.02602000  0.52828300  1.0
  H  H25  1  0.77283300  0.64657400  0.51455600  1.0
  H  H26  1  0.87374100  0.22716700  0.51455600  1.0
  H  H27  1  0.35342600  0.12625900  0.51455600  1.0
  H  H28  1  0.04566900  0.79946100  0.40705700  1.0
  H  H29  1  0.20053900  0.24620800  0.40705700  1.0
  H  H30  1  0.75379200  0.95433100  0.40705700  1.0
  H  H31  1  0.30446700  0.53059900  0.34301900  1.0
  H  H32  1  0.22613200  0.69553300  0.34301900  1.0
  H  H33  1  0.46940100  0.77386800  0.34301900  1.0
  H  H34  1  0.68184100  0.46456300  0.20251200  1.0
  H  H35  1  0.78272200  0.31815900  0.20251200  1.0
  H  H36  1  0.53543700  0.21727800  0.20251200  1.0
  H  H37  1  0.98374500  0.21777100  0.16501800  1.0
  H  H38  1  0.78222900  0.76597400  0.16501800  1.0
  H  H39  1  0.23402600  0.01625500  0.16501800  1.0
  H  H40  1  0.02602000  0.45252300  0.02828300  1.0
  H  H41  1  0.54747700  0.57349700  0.02828300  1.0
  H  H42  1  0.42650300  0.97398000  0.02828300  1.0
  H  H43  1  0.22716700  0.35342600  0.01455600  1.0
  H  H44  1  0.12625900  0.77283300  0.01455600  1.0
  H  H45  1  0.64657400  0.87374100  0.01455600  1.0
  N  N46  1  0.66666667  0.33333333  0.79296900  1.0
  N  N47  1  0.33333333  0.66666667  0.75227600  1.0
  N  N48  1  0.33333333  0.66666667  0.29296900  1.0
  N  N49  1  0.66666667  0.33333333  0.25227600  1.0
