# generated using pymatgen
data_InBiSe3
_symmetry_space_group_name_H-M   'P 1'
_cell_length_a   9.67105970
_cell_length_b   9.67105970
_cell_length_c   9.67105970
_cell_angle_alpha   24.10834386
_cell_angle_beta   24.10834386
_cell_angle_gamma   24.10834386
_symmetry_Int_Tables_number   1
_chemical_formula_structural   InBiSe3
_chemical_formula_sum   'In1 Bi1 Se3'
_cell_volume   132.62216143
_cell_formula_units_Z   1
loop_
 _symmetry_equiv_pos_site_id
 _symmetry_equiv_pos_as_xyz
  1  'x, y, z'
loop_
 _atom_site_type_symbol
 _atom_site_label
 _atom_site_symmetry_multiplicity
 _atom_site_fract_x
 _atom_site_fract_y
 _atom_site_fract_z
 _atom_site_occupancy
  In  In0  1  0.59924286  0.59924286  0.59924286  1
  Bi  Bi1  1  0.39839940  0.39839940  0.39839940  1
  Se  Se2  1  0.21905551  0.21905551  0.21905551  1
  Se  Se3  1  0.78859082  0.78859082  0.78859082  1
  Se  Se4  1  0.99471038  0.99471038  0.99471038  1
