# generated using pymatgen
data_LiBr
_symmetry_space_group_name_H-M   'P 1'
_cell_length_a   3.79901281
_cell_length_b   3.79901281
_cell_length_c   9.72281819
_cell_angle_alpha   78.77273214
_cell_angle_beta   78.77273214
_cell_angle_gamma   59.96511246
_symmetry_Int_Tables_number   1
_chemical_formula_structural   LiBr
_chemical_formula_sum   'Li3 Br3'
_cell_volume   118.37305198
_cell_formula_units_Z   3
loop_
 _symmetry_equiv_pos_site_id
 _symmetry_equiv_pos_as_xyz
  1  'x, y, z'
loop_
 _atom_site_type_symbol
 _atom_site_label
 _atom_site_symmetry_multiplicity
 _atom_site_fract_x
 _atom_site_fract_y
 _atom_site_fract_z
 _atom_site_occupancy
  Li  Li0  1  0.22320793  0.22320793  0.22219487  1
  Li  Li1  1  0.10975975  0.10975975  0.55769660  1
  Li  Li2  1  0.33354325  0.33354325  0.88675451  1
  Br  Br3  1  0.94488703  0.94488703  0.05502574  1
  Br  Br4  1  0.72167070  0.72167070  0.72224193  1
  Br  Br5  1  0.50026735  0.50026735  0.38942035  1
