# generated using pymatgen
data_RbNbN2
_symmetry_space_group_name_H-M   'P 1'
_cell_length_a   6.15552905
_cell_length_b   6.15552905
_cell_length_c   6.15552905
_cell_angle_alpha   120.96584703
_cell_angle_beta   120.96584703
_cell_angle_gamma   88.33508936
_symmetry_Int_Tables_number   1
_chemical_formula_structural   RbNbN2
_chemical_formula_sum   'Rb2 Nb2 N4'
_cell_volume   162.44086682
_cell_formula_units_Z   2
loop_
 _symmetry_equiv_pos_site_id
 _symmetry_equiv_pos_as_xyz
  1  'x, y, z'
loop_
 _atom_site_type_symbol
 _atom_site_label
 _atom_site_symmetry_multiplicity
 _atom_site_fract_x
 _atom_site_fract_y
 _atom_site_fract_z
 _atom_site_occupancy
  Rb  Rb0  1  0.25000000  0.75000000  0.50000000  1
  Rb  Rb1  1  0.50000000  0.50000000  0.00000000  1
  Nb  Nb2  1  0.75000000  0.25000000  0.50000000  1
  Nb  Nb3  1  0.00000000  0.00000000  0.00000000  1
  N  N4  1  0.78243472  0.12500000  0.15743472  1
  N  N5  1  0.96756528  0.62500000  0.84256528  1
  N  N6  1  0.87500000  0.03243472  0.65743472  1
  N  N7  1  0.37500000  0.21756528  0.34256528  1
