# generated using pymatgen
data_Ga2AsP
_symmetry_space_group_name_H-M   'P 1'
_cell_length_a   6.79329193
_cell_length_b   6.79329193
_cell_length_c   6.79329193
_cell_angle_alpha   33.53350739
_cell_angle_beta   33.53350739
_cell_angle_gamma   33.53350739
_symmetry_Int_Tables_number   1
_chemical_formula_structural   Ga2AsP
_chemical_formula_sum   'Ga2 As1 P1'
_cell_volume   85.21434840
_cell_formula_units_Z   1
loop_
 _symmetry_equiv_pos_site_id
 _symmetry_equiv_pos_as_xyz
  1  'x, y, z'
loop_
 _atom_site_type_symbol
 _atom_site_label
 _atom_site_symmetry_multiplicity
 _atom_site_fract_x
 _atom_site_fract_y
 _atom_site_fract_z
 _atom_site_occupancy
  Ga  Ga0  1  0.99744699  0.99744699  0.99744699  1
  Ga  Ga1  1  0.50266222  0.50266222  0.50266222  1
  As  As2  1  0.12477787  0.12477787  0.12477787  1
  P  P3  1  0.62511294  0.62511294  0.62511294  1
