# generated using pymatgen
data_Li2BrCl
_symmetry_space_group_name_H-M   'P 1'
_cell_length_a   6.98827769
_cell_length_b   6.98827769
_cell_length_c   6.98827769
_cell_angle_alpha   131.60575394
_cell_angle_beta   131.60575394
_cell_angle_gamma   70.85241293
_symmetry_Int_Tables_number   1
_chemical_formula_structural   Li2BrCl
_chemical_formula_sum   'Li4 Br2 Cl2'
_cell_volume   186.87986533
_cell_formula_units_Z   2
loop_
 _symmetry_equiv_pos_site_id
 _symmetry_equiv_pos_as_xyz
  1  'x, y, z'
loop_
 _atom_site_type_symbol
 _atom_site_label
 _atom_site_symmetry_multiplicity
 _atom_site_fract_x
 _atom_site_fract_y
 _atom_site_fract_z
 _atom_site_occupancy
  Li  Li0  1  0.60251407  0.12500000  0.97751407  1
  Li  Li1  1  0.14748593  0.62500000  0.02248593  1
  Li  Li2  1  0.87500000  0.85251407  0.47751407  1
  Li  Li3  1  0.37500000  0.39748593  0.52248593  1
  Br  Br4  1  0.75000000  0.25000000  0.50000000  1
  Br  Br5  1  0.00000000  0.00000000  0.00000000  1
  Cl  Cl6  1  0.25000000  0.75000000  0.50000000  1
  Cl  Cl7  1  0.50000000  0.50000000  0.00000000  1
