# generated using pymatgen
data_LiGaS2
_symmetry_space_group_name_H-M   'P 1'
_cell_length_a   6.53238625
_cell_length_b   6.53238625
_cell_length_c   6.53238625
_cell_angle_alpha   129.01530655
_cell_angle_beta   129.01530655
_cell_angle_gamma   74.98594612
_symmetry_Int_Tables_number   1
_chemical_formula_structural   LiGaS2
_chemical_formula_sum   'Li2 Ga2 S4'
_cell_volume   163.87341056
_cell_formula_units_Z   2
loop_
 _symmetry_equiv_pos_site_id
 _symmetry_equiv_pos_as_xyz
  1  'x, y, z'
loop_
 _atom_site_type_symbol
 _atom_site_label
 _atom_site_symmetry_multiplicity
 _atom_site_fract_x
 _atom_site_fract_y
 _atom_site_fract_z
 _atom_site_occupancy
  Li  Li0  1  0.50000000  0.50000000  0.00000000  1
  Li  Li1  1  0.25000000  0.75000000  0.50000000  1
  Ga  Ga2  1  0.00000000  0.00000000  0.00000000  1
  Ga  Ga3  1  0.75000000  0.25000000  0.50000000  1
  S  S4  1  0.64604343  0.62500000  0.52104343  1
  S  S5  1  0.37500000  0.89604343  0.02104343  1
  S  S6  1  0.87500000  0.35395657  0.97895657  1
  S  S7  1  0.10395657  0.12500000  0.47895657  1
