# generated using pymatgen
data_RbTaN2
_symmetry_space_group_name_H-M   'P 1'
_cell_length_a   6.14886847
_cell_length_b   6.14886847
_cell_length_c   6.14886847
_cell_angle_alpha   120.95520805
_cell_angle_beta   120.95520805
_cell_angle_gamma   88.35334330
_symmetry_Int_Tables_number   1
_chemical_formula_structural   RbTaN2
_chemical_formula_sum   'Rb2 Ta2 N4'
_cell_volume   161.94217258
_cell_formula_units_Z   2
loop_
 _symmetry_equiv_pos_site_id
 _symmetry_equiv_pos_as_xyz
  1  'x, y, z'
loop_
 _atom_site_type_symbol
 _atom_site_label
 _atom_site_symmetry_multiplicity
 _atom_site_fract_x
 _atom_site_fract_y
 _atom_site_fract_z
 _atom_site_occupancy
  Rb  Rb0  1  0.00000000  0.00000000  0.00000000  1
  Rb  Rb1  1  0.75000000  0.25000000  0.50000000  1
  Ta  Ta2  1  0.50000000  0.50000000  0.00000000  1
  Ta  Ta3  1  0.25000000  0.75000000  0.50000000  1
  N  N4  1  0.28740271  0.62500000  0.16240271  1
  N  N5  1  0.37500000  0.53740271  0.66240271  1
  N  N6  1  0.46259729  0.12500000  0.83759729  1
  N  N7  1  0.87500000  0.71259729  0.33759729  1
