# generated using pymatgen
data_NaCaBeSi2O6F
_symmetry_space_group_name_H-M   'P 1'
_cell_length_a   7.40100000
_cell_length_b   7.42000000
_cell_length_c   9.93900000
_cell_angle_alpha   90.00000000
_cell_angle_beta   90.00000000
_cell_angle_gamma   90.00000000
_symmetry_Int_Tables_number   1
_chemical_formula_structural   NaCaBeSi2O6F
_chemical_formula_sum   'Na4 Ca4 Be4 Si8 O24 F4'
_cell_volume   545.80435938
_cell_formula_units_Z   4
loop_
 _symmetry_equiv_pos_site_id
 _symmetry_equiv_pos_as_xyz
  1  'x, y, z'
loop_
 _atom_site_type_symbol
 _atom_site_label
 _atom_site_symmetry_multiplicity
 _atom_site_fract_x
 _atom_site_fract_y
 _atom_site_fract_z
 _atom_site_occupancy
  Na  Na0  1  0.56700000  0.64650000  0.49410000  1.0
  Na  Na1  1  0.93300000  0.35350000  0.99410000  1.0
  Na  Na2  1  0.43300000  0.14650000  0.00590000  1.0
  Na  Na3  1  0.06700000  0.85350000  0.50590000  1.0
  Ca  Ca4  1  0.60500000  0.67350000  0.01060000  1.0
  Ca  Ca5  1  0.89500000  0.32650000  0.51060000  1.0
  Ca  Ca6  1  0.39500000  0.17350000  0.48940000  1.0
  Ca  Ca7  1  0.10500000  0.82650000  0.98940000  1.0
  Be  Be8  1  0.89090000  0.62680000  0.78260000  1.0
  Be  Be9  1  0.39090000  0.87320000  0.21740000  1.0
  Be  Be10  1  0.10910000  0.12680000  0.71740000  1.0
  Be  Be11  1  0.60910000  0.37320000  0.28260000  1.0
  Si  Si12  1  0.60800000  0.34920000  0.77350000  1.0
  Si  Si13  1  0.75940000  0.98680000  0.75070000  1.0
  Si  Si14  1  0.89200000  0.65080000  0.27350000  1.0
  Si  Si15  1  0.74060000  0.01320000  0.25070000  1.0
  Si  Si16  1  0.10800000  0.15080000  0.22650000  1.0
  Si  Si17  1  0.39200000  0.84920000  0.72650000  1.0
  Si  Si18  1  0.25940000  0.51320000  0.24930000  1.0
  Si  Si19  1  0.24060000  0.48680000  0.74930000  1.0
  O  O20  1  0.40870000  0.40000000  0.83730000  1.0
  O  O21  1  0.83830000  0.83080000  0.84760000  1.0
  O  O22  1  0.66180000  0.15160000  0.83810000  1.0
  O  O23  1  0.16170000  0.33080000  0.65240000  1.0
  O  O24  1  0.59130000  0.90000000  0.66270000  1.0
  O  O25  1  0.58700000  0.92540000  0.15740000  1.0
  O  O26  1  0.83820000  0.84840000  0.33810000  1.0
  O  O27  1  0.91300000  0.07460000  0.65740000  1.0
  O  O28  1  0.16180000  0.34840000  0.16190000  1.0
  O  O29  1  0.90870000  0.10000000  0.16270000  1.0
  O  O30  1  0.08700000  0.57460000  0.84260000  1.0
  O  O31  1  0.25790000  0.99630000  0.66230000  1.0
  O  O32  1  0.09130000  0.60000000  0.33730000  1.0
  O  O33  1  0.24210000  0.00370000  0.16230000  1.0
  O  O34  1  0.60520000  0.33930000  0.61710000  1.0
  O  O35  1  0.10520000  0.16070000  0.38290000  1.0
  O  O36  1  0.74210000  0.49630000  0.83770000  1.0
  O  O37  1  0.39480000  0.83930000  0.88290000  1.0
  O  O38  1  0.41300000  0.42540000  0.34260000  1.0
  O  O39  1  0.75790000  0.50370000  0.33770000  1.0
  O  O40  1  0.66170000  0.16920000  0.34760000  1.0
  O  O41  1  0.33820000  0.65160000  0.66190000  1.0
  O  O42  1  0.89480000  0.66070000  0.11710000  1.0
  O  O43  1  0.33830000  0.66920000  0.15240000  1.0
  F  F44  1  0.39790000  0.86850000  0.37530000  1.0
  F  F45  1  0.60210000  0.36850000  0.12470000  1.0
  F  F46  1  0.10210000  0.13150000  0.87530000  1.0
  F  F47  1  0.89790000  0.63150000  0.62470000  1.0
