# generated using pymatgen
data_LiCdPS4
_symmetry_space_group_name_H-M   'P 1'
_cell_length_a   6.02060308
_cell_length_b   6.02075059
_cell_length_c   6.31486862
_cell_angle_alpha   118.47006185
_cell_angle_beta   118.45740715
_cell_angle_gamma   89.99920547
_symmetry_Int_Tables_number   1
_chemical_formula_structural   LiCdPS4
_chemical_formula_sum   'Li1 Cd1 P1 S4'
_cell_volume   169.09646976
_cell_formula_units_Z   1
loop_
 _symmetry_equiv_pos_site_id
 _symmetry_equiv_pos_as_xyz
  1  'x, y, z'
loop_
 _atom_site_type_symbol
 _atom_site_label
 _atom_site_symmetry_multiplicity
 _atom_site_fract_x
 _atom_site_fract_y
 _atom_site_fract_z
 _atom_site_occupancy
  Li  Li0  1  0.49980400  0.49979837  0.99998588  1
  Cd  Cd1  1  0.00002342  0.99997657  0.99998852  1
  P  P2  1  0.75002827  0.25003857  0.49999272  1
  S  S3  1  0.64540680  0.56232468  0.72357599  1
  S  S4  1  0.83891593  0.35478459  0.27659339  1
  S  S5  1  0.43776161  0.92197147  0.27651311  1
  S  S6  1  0.07805898  0.16110476  0.72335038  1
