# generated using pymatgen
data_AlGaS3
_symmetry_space_group_name_H-M   'P 1'
_cell_length_a   5.92826129
_cell_length_b   3.62630468
_cell_length_c   10.20471773
_cell_angle_alpha   79.82343952
_cell_angle_beta   90.00000000
_cell_angle_gamma   90.00000000
_symmetry_Int_Tables_number   1
_chemical_formula_structural   AlGaS3
_chemical_formula_sum   'Al2 Ga2 S6'
_cell_volume   215.92651569
_cell_formula_units_Z   2
loop_
 _symmetry_equiv_pos_site_id
 _symmetry_equiv_pos_as_xyz
  1  'x, y, z'
loop_
 _atom_site_type_symbol
 _atom_site_label
 _atom_site_symmetry_multiplicity
 _atom_site_fract_x
 _atom_site_fract_y
 _atom_site_fract_z
 _atom_site_occupancy
  Al  Al0  1  0.50718311  0.67644456  0.64804972  1
  Al  Al1  1  0.00718311  0.32355544  0.35195028  1
  Ga  Ga2  1  0.94670286  0.12828136  0.74434379  1
  Ga  Ga3  1  0.44670286  0.87171864  0.25565621  1
  S  S4  1  0.32421521  0.12163202  0.75828794  1
  S  S5  1  0.82421521  0.87836798  0.24171206  1
  S  S6  1  0.27381478  0.41871334  0.16097829  1
  S  S7  1  0.77381478  0.58128666  0.83902171  1
  S  S8  1  0.74218403  0.22816498  0.54395722  1
  S  S9  1  0.24218403  0.77183502  0.45604278  1
