# generated using pymatgen
data_LiHgPSe4
_symmetry_space_group_name_H-M   'P 1'
_cell_length_a   6.70868214
_cell_length_b   6.70868214
_cell_length_c   6.70868214
_cell_angle_alpha   124.54832880
_cell_angle_beta   124.54832880
_cell_angle_gamma   82.28750087
_symmetry_Int_Tables_number   1
_chemical_formula_structural   LiHgPSe4
_chemical_formula_sum   'Li1 Hg1 P1 Se4'
_cell_volume   196.86037923
_cell_formula_units_Z   1
loop_
 _symmetry_equiv_pos_site_id
 _symmetry_equiv_pos_as_xyz
  1  'x, y, z'
loop_
 _atom_site_type_symbol
 _atom_site_label
 _atom_site_symmetry_multiplicity
 _atom_site_fract_x
 _atom_site_fract_y
 _atom_site_fract_z
 _atom_site_occupancy
  Li  Li0  1  0.75000000  0.25000000  0.50000000  1
  Hg  Hg1  1  0.25000000  0.75000000  0.50000000  1
  P  P2  1  0.00000000  0.00000000  0.00000000  1
  Se  Se3  1  0.87828774  0.89419319  0.55750782  1
  Se  Se4  1  0.10580681  0.66331463  0.98409455  1
  Se  Se5  1  0.67922008  0.12171226  0.01590545  1
  Se  Se6  1  0.33668537  0.32077992  0.44249218  1
