# generated using pymatgen
data_LiAlSe2
_symmetry_space_group_name_H-M   'P 1'
_cell_length_a   6.84956748
_cell_length_b   6.84956748
_cell_length_c   6.84956748
_cell_angle_alpha   128.76206433
_cell_angle_beta   128.76206433
_cell_angle_gamma   75.39372467
_symmetry_Int_Tables_number   1
_chemical_formula_structural   LiAlSe2
_chemical_formula_sum   'Li2 Al2 Se4'
_cell_volume   190.15458524
_cell_formula_units_Z   2
loop_
 _symmetry_equiv_pos_site_id
 _symmetry_equiv_pos_as_xyz
  1  'x, y, z'
loop_
 _atom_site_type_symbol
 _atom_site_label
 _atom_site_symmetry_multiplicity
 _atom_site_fract_x
 _atom_site_fract_y
 _atom_site_fract_z
 _atom_site_occupancy
  Li  Li0  1  0.50000000  0.50000000  0.00000000  1
  Li  Li1  1  0.25000000  0.75000000  0.50000000  1
  Al  Al2  1  0.00000000  0.00000000  0.00000000  1
  Al  Al3  1  0.75000000  0.25000000  0.50000000  1
  Se  Se4  1  0.64749262  0.62500000  0.52249262  1
  Se  Se5  1  0.37500000  0.89749262  0.02249262  1
  Se  Se6  1  0.87500000  0.35250738  0.97750738  1
  Se  Se7  1  0.10250738  0.12500000  0.47750738  1
