# generated using pymatgen
data_AlGaSe3
_symmetry_space_group_name_H-M   'P 1'
_cell_length_a   6.26636160
_cell_length_b   3.81837924
_cell_length_c   10.82566756
_cell_angle_alpha   79.89741748
_cell_angle_beta   90.00000000
_cell_angle_gamma   90.00000000
_symmetry_Int_Tables_number   1
_chemical_formula_structural   AlGaSe3
_chemical_formula_sum   'Al2 Ga2 Se6'
_cell_volume   255.01330215
_cell_formula_units_Z   2
loop_
 _symmetry_equiv_pos_site_id
 _symmetry_equiv_pos_as_xyz
  1  'x, y, z'
loop_
 _atom_site_type_symbol
 _atom_site_label
 _atom_site_symmetry_multiplicity
 _atom_site_fract_x
 _atom_site_fract_y
 _atom_site_fract_z
 _atom_site_occupancy
  Al  Al0  1  0.50846755  0.67491701  0.65099344  1
  Al  Al1  1  0.00846755  0.32508299  0.34900656  1
  Ga  Ga2  1  0.94553390  0.13116128  0.73940044  1
  Ga  Ga3  1  0.44553390  0.86883872  0.26059956  1
  Se  Se4  1  0.32479207  0.11846523  0.76439006  1
  Se  Se5  1  0.82479207  0.88153477  0.23560994  1
  Se  Se6  1  0.27464288  0.41934243  0.15929817  1
  Se  Se7  1  0.77464288  0.58065757  0.84070183  1
  Se  Se8  1  0.74066360  0.22953039  0.54131351  1
  Se  Se9  1  0.24066360  0.77046961  0.45868649  1
