# generated using pymatgen
data_Ti3GeO8
_symmetry_space_group_name_H-M   'P 1'
_cell_length_a   5.33983882
_cell_length_b   5.34611753
_cell_length_c   5.54620744
_cell_angle_alpha   118.78919598
_cell_angle_beta   90.12425924
_cell_angle_gamma   89.99125092
_symmetry_Int_Tables_number   1
_chemical_formula_structural   Ti3GeO8
_chemical_formula_sum   'Ti3 Ge1 O8'
_cell_volume   138.75947445
_cell_formula_units_Z   1
loop_
 _symmetry_equiv_pos_site_id
 _symmetry_equiv_pos_as_xyz
  1  'x, y, z'
loop_
 _atom_site_type_symbol
 _atom_site_label
 _atom_site_symmetry_multiplicity
 _atom_site_fract_x
 _atom_site_fract_y
 _atom_site_fract_z
 _atom_site_occupancy
  Ti  Ti0  1  0.49990911  0.37561379  0.99999107  1
  Ti  Ti1  1  0.25044725  0.87453046  0.50005879  1
  Ti  Ti2  1  0.74978103  0.37447763  0.49999085  1
  Ge  Ge3  1  0.99990686  0.87548514  0.99996852  1
  O  O4  1  0.49969547  0.57812425  0.40745592  1
  O  O5  1  0.50050234  0.17059598  0.59254410  1
  O  O6  1  0.99988933  0.67635445  0.60315091  1
  O  O7  1  0.00026668  0.07323201  0.39682750  1
  O  O8  1  0.75346807  0.58508870  0.91543630  1
  O  O9  1  0.24635975  0.66960149  0.08455576  1
  O  O10  1  0.75366855  0.16575812  0.08475274  1
  O  O11  1  0.24609158  0.08112398  0.91521855  1
