# generated using pymatgen
data_Pb4SBr6
_symmetry_space_group_name_H-M   'P 1'
_cell_length_a   4.33740286
_cell_length_b   9.48953963
_cell_length_c   10.16355668
_cell_angle_alpha   111.22333925
_cell_angle_beta   102.31507409
_cell_angle_gamma   103.20869698
_symmetry_Int_Tables_number   1
_chemical_formula_structural   Pb4SBr6
_chemical_formula_sum   'Pb4 S1 Br6'
_cell_volume   358.87983318
_cell_formula_units_Z   1
loop_
 _symmetry_equiv_pos_site_id
 _symmetry_equiv_pos_as_xyz
  1  'x, y, z'
loop_
 _atom_site_type_symbol
 _atom_site_label
 _atom_site_symmetry_multiplicity
 _atom_site_fract_x
 _atom_site_fract_y
 _atom_site_fract_z
 _atom_site_occupancy
  Pb  Pb0  1  0.02284637  0.02660536  0.02127603  1
  Pb  Pb1  1  0.21295099  0.97580458  0.45193879  1
  Pb  Pb2  1  0.94168370  0.44068400  0.44726090  1
  Pb  Pb3  1  0.23842966  0.50785421  0.97288111  1
  S  S4  1  0.27812188  0.24774876  0.31244076  1
  Br  Br5  1  0.54917817  0.18237336  0.91827645  1
  Br  Br6  1  0.52137895  0.88335567  0.16240934  1
  Br  Br7  1  0.71514490  0.61130833  0.82187600  1
  Br  Br8  1  0.69192788  0.82175249  0.56433402  1
  Br  Br9  1  0.90557294  0.59267212  0.22168936  1
  Br  Br10  1  0.92967357  0.23813812  0.62393623  1
