# generated using pymatgen
data_Hf(Fe2Ge3)2
_symmetry_space_group_name_H-M   'P 1'
_cell_length_a   6.12189024
_cell_length_b   6.12189024
_cell_length_c   6.15381696
_cell_angle_alpha   60.17089714
_cell_angle_beta   60.17089714
_cell_angle_gamma   89.99796794
_symmetry_Int_Tables_number   1
_chemical_formula_structural   Hf(Fe2Ge3)2
_chemical_formula_sum   'Hf1 Fe4 Ge6'
_cell_volume   163.92172227
_cell_formula_units_Z   1
loop_
 _symmetry_equiv_pos_site_id
 _symmetry_equiv_pos_as_xyz
  1  'x, y, z'
loop_
 _atom_site_type_symbol
 _atom_site_label
 _atom_site_symmetry_multiplicity
 _atom_site_fract_x
 _atom_site_fract_y
 _atom_site_fract_z
 _atom_site_occupancy
  Hf  Hf0  1  0.00003253  0.00003253  0.00001060  1
  Fe  Fe1  1  0.24711421  0.59672348  0.15611024  1
  Fe  Fe2  1  0.40317590  0.40317590  0.84391371  1
  Fe  Fe3  1  0.59672348  0.24711421  0.15611024  1
  Fe  Fe4  1  0.75283336  0.75283336  0.84383410  1
  Ge  Ge5  1  0.88280777  0.53085118  0.58627015  1
  Ge  Ge6  1  0.53085118  0.88280777  0.58627015  1
  Ge  Ge7  1  0.11713099  0.11713099  0.41376540  1
  Ge  Ge8  1  0.99996261  0.50000857  0.99999764  1
  Ge  Ge9  1  0.46909739  0.46909739  0.41371414  1
  Ge  Ge10  1  0.50000857  0.99996261  0.99999764  1
