# generated using pymatgen
data_BaSrHf2O6
_symmetry_space_group_name_H-M   'P 1'
_cell_length_a   5.82797998
_cell_length_b   5.82797998
_cell_length_c   5.82797998
_cell_angle_alpha   120.41040732
_cell_angle_beta   120.41040732
_cell_angle_gamma   89.29061148
_symmetry_Int_Tables_number   1
_chemical_formula_structural   BaSrHf2O6
_chemical_formula_sum   'Ba1 Sr1 Hf2 O6'
_cell_volume   139.09150937
_cell_formula_units_Z   1
loop_
 _symmetry_equiv_pos_site_id
 _symmetry_equiv_pos_as_xyz
  1  'x, y, z'
loop_
 _atom_site_type_symbol
 _atom_site_label
 _atom_site_symmetry_multiplicity
 _atom_site_fract_x
 _atom_site_fract_y
 _atom_site_fract_z
 _atom_site_occupancy
  Ba  Ba0  1  0.50000000  0.50000000  -0.00000000  1
  Sr  Sr1  1  0.00000000  0.00000000  0.00000000  1
  Hf  Hf2  1  0.25000000  0.75000000  0.50000000  1
  Hf  Hf3  1  0.75000000  0.25000000  0.50000000  1
  O  O4  1  0.54831093  0.54831093  0.57534094  1
  O  O5  1  0.97296999  0.97296999  0.42465906  1
  O  O6  1  0.02703001  0.45168907  1.00000000  1
  O  O7  1  0.45168907  0.02703001  1.00000000  1
  O  O8  1  -0.00000000  0.50000000  0.50000000  1
  O  O9  1  0.50000000  1.00000000  0.50000000  1
