# generated using pymatgen
data_ZnBi2B2O7
_symmetry_space_group_name_H-M   'P 1'
_cell_length_a   10.82680000
_cell_length_b   11.03290000
_cell_length_c   4.88480000
_cell_angle_alpha   90.00000000
_cell_angle_beta   90.00000000
_cell_angle_gamma   90.00000000
_symmetry_Int_Tables_number   1
_chemical_formula_structural   ZnBi2B2O7
_chemical_formula_sum   'Zn4 Bi8 B8 O28'
_cell_volume   583.49425320
_cell_formula_units_Z   4
loop_
 _symmetry_equiv_pos_site_id
 _symmetry_equiv_pos_as_xyz
  1  'x, y, z'
loop_
 _atom_site_type_symbol
 _atom_site_label
 _atom_site_symmetry_multiplicity
 _atom_site_fract_x
 _atom_site_fract_y
 _atom_site_fract_z
 _atom_site_occupancy
  Zn  Zn0  1  0.74020000  0.24070000  0.07140000  1.0
  Zn  Zn1  1  0.24020000  0.25930000  0.07140000  1.0
  Zn  Zn2  1  0.25980000  0.75930000  0.07140000  1.0
  Zn  Zn3  1  0.75980000  0.74070000  0.07140000  1.0
  Bi  Bi4  1  0.31880000  0.03340000  0.57700000  1.0
  Bi  Bi5  1  0.51590000  0.31260000  0.58000000  1.0
  Bi  Bi6  1  0.48410000  0.68740000  0.58000000  1.0
  Bi  Bi7  1  0.68120000  0.96660000  0.57700000  1.0
  Bi  Bi8  1  0.98410000  0.81260000  0.58000000  1.0
  Bi  Bi9  1  0.18120000  0.53340000  0.57700000  1.0
  Bi  Bi10  1  0.81880000  0.46660000  0.57700000  1.0
  Bi  Bi11  1  0.01590000  0.18740000  0.58000000  1.0
  B  B12  1  0.51540000  0.87310000  0.12010000  1.0
  B  B13  1  0.38500000  0.48020000  0.08180000  1.0
  B  B14  1  0.98460000  0.37310000  0.12010000  1.0
  B  B15  1  0.88500000  0.01980000  0.08180000  1.0
  B  B16  1  0.01540000  0.62690000  0.12010000  1.0
  B  B17  1  0.11500000  0.98020000  0.08180000  1.0
  B  B18  1  0.61500000  0.51980000  0.08180000  1.0
  B  B19  1  0.48460000  0.12690000  0.12010000  1.0
  O  O20  1  0.50000000  0.50000000  0.96060000  1.0
  O  O21  1  0.50000000  0.00000000  0.21190000  1.0
  O  O22  1  0.19460000  0.91490000  0.93750000  1.0
  O  O23  1  0.69460000  0.58510000  0.93750000  1.0
  O  O24  1  0.19920000  0.17370000  0.73860000  1.0
  O  O25  1  0.00000000  0.00000000  0.96060000  1.0
  O  O26  1  0.48030000  0.14170000  0.82380000  1.0
  O  O27  1  0.08590000  0.29970000  0.25130000  1.0
  O  O28  1  0.51970000  0.85830000  0.82380000  1.0
  O  O29  1  0.00000000  0.50000000  0.21190000  1.0
  O  O30  1  0.30080000  0.67370000  0.73860000  1.0
  O  O31  1  0.80540000  0.08510000  0.93750000  1.0
  O  O32  1  0.30540000  0.41490000  0.93750000  1.0
  O  O33  1  0.86910000  0.32750000  0.26940000  1.0
  O  O34  1  0.13090000  0.67250000  0.26940000  1.0
  O  O35  1  0.63520000  0.47540000  0.33380000  1.0
  O  O36  1  0.86480000  0.97540000  0.33380000  1.0
  O  O37  1  0.13520000  0.02460000  0.33380000  1.0
  O  O38  1  0.58590000  0.20030000  0.25130000  1.0
  O  O39  1  0.91410000  0.70030000  0.25130000  1.0
  O  O40  1  0.98030000  0.35830000  0.82380000  1.0
  O  O41  1  0.36480000  0.52460000  0.33380000  1.0
  O  O42  1  0.69920000  0.32630000  0.73860000  1.0
  O  O43  1  0.41410000  0.79970000  0.25130000  1.0
  O  O44  1  0.01970000  0.64170000  0.82380000  1.0
  O  O45  1  0.80080000  0.82630000  0.73860000  1.0
  O  O46  1  0.36910000  0.17250000  0.26940000  1.0
  O  O47  1  0.63090000  0.82750000  0.26940000  1.0
