# generated using pymatgen
data_CaYAlO4
_symmetry_space_group_name_H-M   'P 1'
_cell_length_a   6.41722085
_cell_length_b   6.41722085
_cell_length_c   6.41722085
_cell_angle_alpha   147.11103243
_cell_angle_beta   147.11103243
_cell_angle_gamma   47.19940867
_symmetry_Int_Tables_number   1
_chemical_formula_structural   CaYAlO4
_chemical_formula_sum   'Ca1 Y1 Al1 O4'
_cell_volume   77.62590144
_cell_formula_units_Z   1
loop_
 _symmetry_equiv_pos_site_id
 _symmetry_equiv_pos_as_xyz
  1  'x, y, z'
loop_
 _atom_site_type_symbol
 _atom_site_label
 _atom_site_symmetry_multiplicity
 _atom_site_fract_x
 _atom_site_fract_y
 _atom_site_fract_z
 _atom_site_occupancy
  Ca  Ca0  1  0.35588345  0.35588345  -0.00000000  1
  Y  Y1  1  0.64174265  0.64174265  -0.00000000  1
  Al  Al2  1  0.99466329  0.99466329  -0.00000000  1
  O  O3  1  0.16741161  0.16741161  -0.00000000  1
  O  O4  1  0.82930764  0.82930764  -0.00000000  1
  O  O5  1  0.50549619  0.00549618  0.50000000  1
  O  O6  1  0.00549618  0.50549619  0.50000000  1
