# generated using pymatgen
data_B4C
_symmetry_space_group_name_H-M   'P 1'
_cell_length_a   5.19478580
_cell_length_b   5.19478580
_cell_length_c   5.04646593
_cell_angle_alpha   66.04611982
_cell_angle_beta   66.04611982
_cell_angle_gamma   65.15271732
_symmetry_Int_Tables_number   1
_chemical_formula_structural   B4C
_chemical_formula_sum   'B12 C3'
_cell_volume   108.28781432
_cell_formula_units_Z   3
loop_
 _symmetry_equiv_pos_site_id
 _symmetry_equiv_pos_as_xyz
  1  'x, y, z'
loop_
 _atom_site_type_symbol
 _atom_site_label
 _atom_site_symmetry_multiplicity
 _atom_site_fract_x
 _atom_site_fract_y
 _atom_site_fract_z
 _atom_site_occupancy
  B  B0  1  0.49181212  0.49181212  0.16260684  1
  B  B1  1  0.82421233  0.50218885  0.51532362  1
  B  B2  1  0.16890318  0.49399448  0.49530469  1
  B  B3  1  0.50218885  0.82421233  0.51532362  1
  B  B4  1  0.49399448  0.16890318  0.49530469  1
  B  B5  1  0.30662314  0.30662314  0.81924447  1
  B  B6  1  0.68997141  0.68997141  0.18824699  1
  B  B7  1  0.81191322  0.30310436  0.30518138  1
  B  B8  1  0.18245180  0.69616815  0.70085691  1
  B  B9  1  0.30310436  0.81191322  0.30518138  1
  B  B10  1  0.69616815  0.18245180  0.70085691  1
  B  B11  1  0.00052368  0.00052368  0.01102571  1
  C  C12  1  0.50304073  0.50304073  0.82494810  1
  C  C13  1  0.12425738  0.12425738  0.11808609  1
  C  C14  1  0.87948625  0.87948625  0.89642536  1
