# generated using pymatgen
data_Ba2LiAl(CN2)4
_symmetry_space_group_name_H-M   'P 1'
_cell_length_a   6.86850564
_cell_length_b   11.74700501
_cell_length_c   11.82121419
_cell_angle_alpha   90.00000000
_cell_angle_beta   90.00000000
_cell_angle_gamma   90.00000000
_symmetry_Int_Tables_number   1
_chemical_formula_structural   Ba2LiAl(CN2)4
_chemical_formula_sum   'Ba8 Li4 Al4 C16 N32'
_cell_volume   953.78722149
_cell_formula_units_Z   4
loop_
 _symmetry_equiv_pos_site_id
 _symmetry_equiv_pos_as_xyz
  1  'x, y, z'
loop_
 _atom_site_type_symbol
 _atom_site_label
 _atom_site_symmetry_multiplicity
 _atom_site_fract_x
 _atom_site_fract_y
 _atom_site_fract_z
 _atom_site_occupancy
  Ba  Ba0  1  0.78416833  0.12062060  0.59395656  1
  Ba  Ba1  1  0.71583167  0.87937940  0.09395656  1
  Ba  Ba2  1  0.21583167  0.62062060  0.90604344  1
  Ba  Ba3  1  0.28416833  0.37937940  0.40604344  1
  Ba  Ba4  1  0.79314806  0.62246759  0.41295639  1
  Ba  Ba5  1  0.70685194  0.37753241  0.91295639  1
  Ba  Ba6  1  0.20685194  0.12246759  0.08704361  1
  Ba  Ba7  1  0.29314806  0.87753241  0.58704361  1
  Li  Li8  1  0.03283638  0.87349376  0.33101303  1
  Li  Li9  1  0.46716362  0.12650624  0.83101303  1
  Li  Li10  1  0.96716362  0.37349376  0.16898697  1
  Li  Li11  1  0.53283638  0.62650624  0.66898697  1
  Al  Al12  1  0.52533927  0.12246832  0.33363998  1
  Al  Al13  1  0.97466073  0.87753168  0.83363998  1
  Al  Al14  1  0.47466073  0.62246832  0.16636002  1
  Al  Al15  1  0.02533927  0.37753168  0.66636002  1
  C  C16  1  0.72120470  0.17130841  0.14109715  1
  C  C17  1  0.77879530  0.82869159  0.64109715  1
  C  C18  1  0.27879530  0.67130841  0.35890285  1
  C  C19  1  0.22120470  0.32869159  0.85890285  1
  C  C20  1  0.65908239  0.91785088  0.37758107  1
  C  C21  1  0.84091761  0.08214912  0.87758107  1
  C  C22  1  0.34091761  0.41785088  0.12241893  1
  C  C23  1  0.15908239  0.58214912  0.62241893  1
  C  C24  1  0.15653164  0.07634136  0.39009422  1
  C  C25  1  0.34346836  0.92365864  0.89009422  1
  C  C26  1  0.84346836  0.57634136  0.10990578  1
  C  C27  1  0.65653164  0.42365864  0.60990578  1
  C  C28  1  0.76595477  0.32110692  0.36450373  1
  C  C29  1  0.73404523  0.67889308  0.86450373  1
  C  C30  1  0.23404523  0.82110692  0.13549627  1
  C  C31  1  0.26595477  0.17889308  0.63549627  1
  N  N32  1  0.64467163  0.24813468  0.39659850  1
  N  N33  1  0.85532837  0.75186532  0.89659850  1
  N  N34  1  0.35532837  0.74813468  0.10340150  1
  N  N35  1  0.14467163  0.25186532  0.60340150  1
  N  N36  1  0.25898643  0.14428127  0.33389051  1
  N  N37  1  0.24101357  0.85571873  0.83389051  1
  N  N38  1  0.74101357  0.64428127  0.16610949  1
  N  N39  1  0.75898643  0.35571873  0.66610949  1
  N  N40  1  0.57128881  0.99757350  0.42660755  1
  N  N41  1  0.92871119  0.00242650  0.92660755  1
  N  N42  1  0.42871119  0.49757350  0.07339245  1
  N  N43  1  0.07128881  0.50242650  0.57339245  1
  N  N44  1  0.60666893  0.10052355  0.18540236  1
  N  N45  1  0.89333107  0.89947645  0.68540236  1
  N  N46  1  0.39333107  0.60052355  0.31459764  1
  N  N47  1  0.10666893  0.39947645  0.81459764  1
  N  N48  1  0.83367247  0.23713153  0.09650930  1
  N  N49  1  0.66632753  0.76286847  0.59650930  1
  N  N50  1  0.16632753  0.73713153  0.40349070  1
  N  N51  1  0.33367247  0.26286847  0.90349070  1
  N  N52  1  0.05566678  0.01031251  0.44318685  1
  N  N53  1  0.44433322  0.98968749  0.94318685  1
  N  N54  1  0.94433322  0.51031251  0.05681315  1
  N  N55  1  0.55566678  0.48968749  0.55681315  1
  N  N56  1  0.74215684  0.84108915  0.32900950  1
  N  N57  1  0.75784316  0.15891085  0.82900950  1
  N  N58  1  0.25784316  0.34108915  0.17099050  1
  N  N59  1  0.24215684  0.65891085  0.67099050  1
  N  N60  1  0.88139138  0.39459176  0.33702518  1
  N  N61  1  0.61860862  0.60540824  0.83702518  1
  N  N62  1  0.11860862  0.89459176  0.16297482  1
  N  N63  1  0.38139138  0.10540824  0.66297482  1
