# generated using pymatgen
data_Ge3Ru2
_symmetry_space_group_name_H-M   'P 1'
_cell_length_a   5.73900814
_cell_length_b   5.73904949
_cell_length_c   9.27968842
_cell_angle_alpha   90.00209831
_cell_angle_beta   90.00615684
_cell_angle_gamma   90.00466864
_symmetry_Int_Tables_number   1
_chemical_formula_structural   Ge3Ru2
_chemical_formula_sum   'Ge12 Ru8'
_cell_volume   305.64000650
_cell_formula_units_Z   4
loop_
 _symmetry_equiv_pos_site_id
 _symmetry_equiv_pos_as_xyz
  1  'x, y, z'
loop_
 _atom_site_type_symbol
 _atom_site_label
 _atom_site_symmetry_multiplicity
 _atom_site_fract_x
 _atom_site_fract_y
 _atom_site_fract_z
 _atom_site_occupancy
  Ge  Ge0  1  0.17287230  0.17363287  0.74983275  1
  Ge  Ge1  1  0.17314355  0.82635995  0.24994573  1
  Ge  Ge2  1  0.65163580  0.78295642  0.41420978  1
  Ge  Ge3  1  0.65157260  0.21665373  0.91386615  1
  Ge  Ge4  1  0.78178985  0.65133013  0.08549549  1
  Ge  Ge5  1  0.21816091  0.65157696  0.58556783  1
  Ge  Ge6  1  0.34834609  0.21737851  0.41426306  1
  Ge  Ge7  1  0.82689104  0.82619174  0.74988337  1
  Ge  Ge8  1  0.82706102  0.17380718  0.24978022  1
  Ge  Ge9  1  0.21860884  0.34842964  0.08529470  1
  Ge  Ge10  1  0.78171729  0.34866602  0.58546141  1
  Ge  Ge11  1  0.34827582  0.78265713  0.91431492  1
  Ru  Ru12  1  0.99996246  0.49992701  0.87676102  1
  Ru  Ru13  1  0.99997853  0.99995277  0.00027050  1
  Ru  Ru14  1  0.50002450  0.00001219  0.12367419  1
  Ru  Ru15  1  0.99997594  0.50009060  0.37682282  1
  Ru  Ru16  1  0.50000767  0.00015203  0.62377386  1
  Ru  Ru17  1  0.49999438  0.50006884  0.25024219  1
  Ru  Ru18  1  0.49996973  0.50006732  0.75022489  1
  Ru  Ru19  1  0.00001467  0.00008898  0.50030812  1
