# generated using pymatgen
data_KNb4Bi5O18
_symmetry_space_group_name_H-M   'P 1'
_cell_length_a   12.94587473
_cell_length_b   12.94587473
_cell_length_c   5.61566501
_cell_angle_alpha   89.77907750
_cell_angle_beta   89.77907750
_cell_angle_gamma   154.98332760
_symmetry_Int_Tables_number   1
_chemical_formula_structural   KNb4Bi5O18
_chemical_formula_sum   'K1 Nb4 Bi5 O18'
_cell_volume   397.93700390
_cell_formula_units_Z   1
loop_
 _symmetry_equiv_pos_site_id
 _symmetry_equiv_pos_as_xyz
  1  'x, y, z'
loop_
 _atom_site_type_symbol
 _atom_site_label
 _atom_site_symmetry_multiplicity
 _atom_site_fract_x
 _atom_site_fract_y
 _atom_site_fract_z
 _atom_site_occupancy
  K  K0  1  0.26173800  0.26173800  0.46997000  1
  Nb  Nb1  1  0.17628700  0.34980900  0.96023600  1
  Nb  Nb2  1  0.34980900  0.17628700  0.96023600  1
  Nb  Nb3  1  0.84395100  0.66942000  0.46542300  1
  Nb  Nb4  1  0.66942000  0.84395100  0.46542300  1
  Bi  Bi5  1  0.79658700  0.79658700  0.01303100  1
  Bi  Bi6  1  0.91800000  0.51590800  0.00294600  1
  Bi  Bi7  1  0.51590800  0.91800000  0.00294600  1
  Bi  Bi8  1  0.08187000  0.48297300  0.50405600  1
  Bi  Bi9  1  0.48297300  0.08187000  0.50405600  1
  O  O10  1  0.14635000  0.46806600  0.93060800  1
  O  O11  1  0.46806600  0.14635000  0.93060800  1
  O  O12  1  0.84582800  0.52534500  0.42956600  1
  O  O13  1  0.52534500  0.84582800  0.42956600  1
  O  O14  1  0.03245900  0.86455900  0.14062600  1
  O  O15  1  0.86455900  0.03245900  0.14062600  1
  O  O16  1  0.94328800  0.12378000  0.65074100  1
  O  O17  1  0.12378000  0.94328800  0.65074100  1
  O  O18  1  0.23567200  0.74090700  0.22705400  1
  O  O19  1  0.74090700  0.23567200  0.22705400  1
  O  O20  1  0.75977700  0.25629300  0.72736500  1
  O  O21  1  0.25629300  0.75977700  0.72736500  1
  O  O22  1  0.54064900  0.38956300  0.21559000  1
  O  O23  1  0.38956300  0.54064900  0.21559000  1
  O  O24  1  0.46139800  0.60260200  0.72251900  1
  O  O25  1  0.60260200  0.46139800  0.72251900  1
  O  O26  1  0.18456600  0.18456600  0.94459500  1
  O  O27  1  0.78235300  0.78235300  0.40494600  1
