# generated using pymatgen
data_Mg2TePb4WO12
_symmetry_space_group_name_H-M   'P 1'
_cell_length_a   5.73200700
_cell_length_b   8.08072100
_cell_length_c   11.47951100
_cell_angle_alpha   90.00000000
_cell_angle_beta   90.00000000
_cell_angle_gamma   90.00000000
_symmetry_Int_Tables_number   1
_chemical_formula_structural   Mg2TePb4WO12
_chemical_formula_sum   'Mg4 Te2 Pb8 W2 O24'
_cell_volume   531.71659252
_cell_formula_units_Z   2
loop_
 _symmetry_equiv_pos_site_id
 _symmetry_equiv_pos_as_xyz
  1  'x, y, z'
loop_
 _atom_site_type_symbol
 _atom_site_label
 _atom_site_symmetry_multiplicity
 _atom_site_fract_x
 _atom_site_fract_y
 _atom_site_fract_z
 _atom_site_occupancy
  Mg  Mg0  1  0.99492400  0.50000000  0.62378700  1
  Mg  Mg1  1  0.00507600  0.50000000  0.12378700  1
  Mg  Mg2  1  0.50765600  0.00000000  0.37723200  1
  Mg  Mg3  1  0.49234400  0.00000000  0.87723200  1
  Te  Te4  1  0.00316400  0.00000000  0.12264100  1
  Te  Te5  1  0.99683600  0.00000000  0.62264100  1
  Pb  Pb6  1  0.97366200  0.25220500  0.86743200  1
  Pb  Pb7  1  0.02633800  0.74779500  0.36743200  1
  Pb  Pb8  1  0.52180800  0.75256500  0.13219000  1
  Pb  Pb9  1  0.47819200  0.24743500  0.63219000  1
  Pb  Pb10  1  0.52180800  0.24743500  0.13219000  1
  Pb  Pb11  1  0.47819200  0.75256500  0.63219000  1
  Pb  Pb12  1  0.97366200  0.74779500  0.86743200  1
  Pb  Pb13  1  0.02633800  0.25220500  0.36743200  1
  W  W14  1  0.49369900  0.50000000  0.87817500  1
  W  W15  1  0.50630100  0.50000000  0.37817500  1
  O  O16  1  0.50802000  0.74223600  0.87088800  1
  O  O17  1  0.49198000  0.25776400  0.37088800  1
  O  O18  1  0.99210100  0.24030100  0.12883800  1
  O  O19  1  0.00789900  0.75969900  0.62883800  1
  O  O20  1  0.99210100  0.75969900  0.12883800  1
  O  O21  1  0.00789900  0.24030100  0.62883800  1
  O  O22  1  0.50802000  0.25776400  0.87088800  1
  O  O23  1  0.49198000  0.74223600  0.37088800  1
  O  O24  1  0.25229400  0.50000000  0.99200300  1
  O  O25  1  0.74770600  0.50000000  0.49200300  1
  O  O26  1  0.24958500  0.00000000  0.00915900  1
  O  O27  1  0.75041500  0.00000000  0.50915900  1
  O  O28  1  0.27123200  0.50000000  0.74960200  1
  O  O29  1  0.72876800  0.50000000  0.24960200  1
  O  O30  1  0.22754000  0.00000000  0.25033300  1
  O  O31  1  0.77246000  0.00000000  0.75033300  1
  O  O32  1  0.75737300  0.50000000  0.76157600  1
  O  O33  1  0.24262700  0.50000000  0.26157600  1
  O  O34  1  0.74483000  0.00000000  0.23687100  1
  O  O35  1  0.25517000  0.00000000  0.73687100  1
  O  O36  1  0.73406400  0.50000000  0.99924600  1
  O  O37  1  0.26593600  0.50000000  0.49924600  1
  O  O38  1  0.76761000  0.00000000  0.00067900  1
  O  O39  1  0.23239000  0.00000000  0.50067900  1
