# generated using pymatgen
data_Zn2Si2As3P
_symmetry_space_group_name_H-M   'P 1'
_cell_length_a   6.73706896
_cell_length_b   6.73706896
_cell_length_c   5.60204610
_cell_angle_alpha   65.73683843
_cell_angle_beta   65.73683843
_cell_angle_gamma   49.30267771
_symmetry_Int_Tables_number   1
_chemical_formula_structural   Zn2Si2As3P
_chemical_formula_sum   'Zn2 Si2 As3 P1'
_cell_volume   171.94623200
_cell_formula_units_Z   1
loop_
 _symmetry_equiv_pos_site_id
 _symmetry_equiv_pos_as_xyz
  1  'x, y, z'
loop_
 _atom_site_type_symbol
 _atom_site_label
 _atom_site_symmetry_multiplicity
 _atom_site_fract_x
 _atom_site_fract_y
 _atom_site_fract_z
 _atom_site_occupancy
  Zn  Zn0  1  0.00485400  0.23936100  0.63526000  1
  Zn  Zn1  1  0.76063900  0.99514600  0.36474000  1
  Si  Si2  1  0.49001700  0.75432800  0.12024300  1
  Si  Si3  1  0.24567200  0.50998300  0.87975700  1
  As  As4  1  0.60923100  0.39076900  0.50000000  1
  As  As5  1  0.37407600  0.12580400  0.23717400  1
  As  As6  1  0.87419600  0.62592400  0.76282600  1
  P  P7  1  0.14131500  0.85868500  -0.00000000  1
