# generated using pymatgen
data_Na5B2P3O13
_symmetry_space_group_name_H-M   'P 1'
_cell_length_a   6.71100000
_cell_length_b   11.61800000
_cell_length_c   7.68599950
_cell_angle_alpha   90.00000000
_cell_angle_beta   115.16600029
_cell_angle_gamma   90.00000000
_symmetry_Int_Tables_number   1
_chemical_formula_structural   Na5B2P3O13
_chemical_formula_sum   'Na10 B4 P6 O26'
_cell_volume   542.38256022
_cell_formula_units_Z   2
loop_
 _symmetry_equiv_pos_site_id
 _symmetry_equiv_pos_as_xyz
  1  'x, y, z'
loop_
 _atom_site_type_symbol
 _atom_site_label
 _atom_site_symmetry_multiplicity
 _atom_site_fract_x
 _atom_site_fract_y
 _atom_site_fract_z
 _atom_site_occupancy
  Na  Na0  1  0.38131000  0.10212000  0.72282000  1.0
  Na  Na1  1  0.47313000  0.33204000  0.50465000  1.0
  Na  Na2  1  0.35035000  0.60768000  0.73479000  1.0
  Na  Na3  1  0.90438000  0.23555000  0.96737000  1.0
  Na  Na4  1  0.09562000  0.73555000  0.03263000  1.0
  Na  Na5  1  0.95496000  0.33238000  0.49030000  1.0
  Na  Na6  1  0.61869000  0.60212000  0.27718000  1.0
  Na  Na7  1  0.04504000  0.83238000  0.50970000  1.0
  Na  Na8  1  0.64965000  0.10768000  0.26521000  1.0
  Na  Na9  1  0.52687000  0.83204000  0.49535000  1.0
  B  B10  1  0.78882000  0.51280000  0.00370000  1.0
  B  B11  1  0.13169000  0.46465000  0.99628000  1.0
  B  B12  1  0.21118000  0.01280000  0.99630000  1.0
  B  B13  1  0.86831000  0.96465000  0.00372000  1.0
  P  P14  1  0.15636000  0.56283000  0.32075000  1.0
  P  P15  1  0.84263000  0.57587000  0.69346000  1.0
  P  P16  1  0.49881000  0.34858000  0.00993000  1.0
  P  P17  1  0.50119000  0.84858000  0.99007000  1.0
  P  P18  1  0.84364000  0.06283000  0.67925000  1.0
  P  P19  1  0.15737000  0.07587000  0.30654000  1.0
  O  O20  1  0.25156000  0.36574000  0.96984000  1.0
  O  O21  1  0.73909000  0.02851000  0.82202000  1.0
  O  O22  1  0.74213000  0.47849000  0.55960000  1.0
  O  O23  1  0.73133000  0.59511000  0.83766000  1.0
  O  O24  1  0.26091000  0.52851000  0.17798000  1.0
  O  O25  1  0.90955000  0.05053000  0.16033000  1.0
  O  O26  1  0.75127000  0.17988000  0.59688000  1.0
  O  O27  1  0.07126000  0.92436000  0.00654000  1.0
  O  O28  1  0.25787000  0.97849000  0.44040000  1.0
  O  O29  1  0.74844000  0.86574000  0.03016000  1.0
  O  O30  1  0.80915000  0.97136000  0.53402000  1.0
  O  O31  1  0.83714000  0.68858000  0.59392000  1.0
  O  O32  1  0.16286000  0.18858000  0.40608000  1.0
  O  O33  1  0.49075000  0.77716000  0.14442000  1.0
  O  O34  1  0.19085000  0.47136000  0.46598000  1.0
  O  O35  1  0.92874000  0.42436000  0.99346000  1.0
  O  O36  1  0.50925000  0.27716000  0.85558000  1.0
  O  O37  1  0.24873000  0.67988000  0.40312000  1.0
  O  O38  1  0.42453000  0.97686000  0.00338000  1.0
  O  O39  1  0.90307000  0.58196000  0.18186000  1.0
  O  O40  1  0.26867000  0.09511000  0.16234000  1.0
  O  O41  1  0.36959000  0.80475000  0.78980000  1.0
  O  O42  1  0.63041000  0.30475000  0.21020000  1.0
  O  O43  1  0.57547000  0.47686000  0.99662000  1.0
  O  O44  1  0.09045000  0.55053000  0.83967000  1.0
  O  O45  1  0.09693000  0.08196000  0.81814000  1.0
