# generated using pymatgen
data_Ba3SrZn2(WO6)2
_symmetry_space_group_name_H-M   'P 1'
_cell_length_a   10.06097228
_cell_length_b   10.06097228
_cell_length_c   10.06097228
_cell_angle_alpha   33.56802264
_cell_angle_beta   33.56802264
_cell_angle_gamma   33.56802264
_symmetry_Int_Tables_number   1
_chemical_formula_structural   Ba3SrZn2(WO6)2
_chemical_formula_sum   'Ba3 Sr1 Zn2 W2 O12'
_cell_volume   277.33546467
_cell_formula_units_Z   1
loop_
 _symmetry_equiv_pos_site_id
 _symmetry_equiv_pos_as_xyz
  1  'x, y, z'
loop_
 _atom_site_type_symbol
 _atom_site_label
 _atom_site_symmetry_multiplicity
 _atom_site_fract_x
 _atom_site_fract_y
 _atom_site_fract_z
 _atom_site_occupancy
  Ba  Ba0  1  0.87501200  0.87501200  0.87501200  1
  Ba  Ba1  1  0.12482700  0.12482700  0.12482700  1
  Ba  Ba2  1  0.62518000  0.62518000  0.62518000  1
  Sr  Sr3  1  0.37499600  0.37499600  0.37499600  1
  Zn  Zn4  1  0.74985900  0.74985900  0.74985900  1
  Zn  Zn5  1  0.25015100  0.25015100  0.25015100  1
  W  W6  1  0.00038600  0.00038600  0.00038600  1
  W  W7  1  0.49961600  0.49961600  0.49961600  1
  O  O8  1  0.35871800  0.88056100  0.88056100  1
  O  O9  1  0.85753200  0.38068500  0.38068500  1
  O  O10  1  0.88056100  0.35871800  0.88056100  1
  O  O11  1  0.38068500  0.85753200  0.38068500  1
  O  O12  1  0.61794000  0.61794000  0.14280600  1
  O  O13  1  0.12084200  0.12084200  0.64086100  1
  O  O14  1  0.61794000  0.14280600  0.61794000  1
  O  O15  1  0.12084200  0.64086100  0.12084200  1
  O  O16  1  0.88056100  0.88056100  0.35871800  1
  O  O17  1  0.38068500  0.38068500  0.85753200  1
  O  O18  1  0.14280600  0.61794000  0.61794000  1
  O  O19  1  0.64086100  0.12084200  0.12084200  1
