# generated using pymatgen
data_MnP4
_symmetry_space_group_name_H-M   'P 1'
_cell_length_a   5.85849712
_cell_length_b   5.85849712
_cell_length_c   10.88226515
_cell_angle_alpha   88.36539270
_cell_angle_beta   88.36539270
_cell_angle_gamma   128.35579847
_symmetry_Int_Tables_number   1
_chemical_formula_structural   MnP4
_chemical_formula_sum   'Mn4 P16'
_cell_volume   292.26042568
_cell_formula_units_Z   4
loop_
 _symmetry_equiv_pos_site_id
 _symmetry_equiv_pos_as_xyz
  1  'x, y, z'
loop_
 _atom_site_type_symbol
 _atom_site_label
 _atom_site_symmetry_multiplicity
 _atom_site_fract_x
 _atom_site_fract_y
 _atom_site_fract_z
 _atom_site_occupancy
  Mn  Mn0  1  0.98454400  0.44038000  0.02406800  1
  Mn  Mn1  1  0.44038000  0.98454400  0.52406800  1
  Mn  Mn2  1  0.09390500  0.89352800  0.74611500  1
  Mn  Mn3  1  0.89352800  0.09390500  0.24611500  1
  P  P4  1  0.94398900  0.43786300  0.80558900  1
  P  P5  1  0.43786300  0.94398900  0.30558900  1
  P  P6  1  0.55121300  0.04412700  0.72509500  1
  P  P7  1  0.04412700  0.55121300  0.22509500  1
  P  P8  1  0.22701400  0.33751900  0.72410600  1
  P  P9  1  0.33751900  0.22701400  0.22410600  1
  P  P10  1  0.63169600  0.73202100  0.78862300  1
  P  P11  1  0.73202100  0.63169600  0.28862300  1
  P  P12  1  0.99055300  0.84629100  0.54892100  1
  P  P13  1  0.84629100  0.99055300  0.04892100  1
  P  P14  1  0.12716300  0.89592700  0.95826500  1
  P  P15  1  0.89592700  0.12716300  0.45826500  1
  P  P16  1  0.28790300  0.52787100  0.53427900  1
  P  P17  1  0.52787100  0.28790300  0.03427900  1
  P  P18  1  0.44127000  0.60502700  0.98335900  1
  P  P19  1  0.60502700  0.44127000  0.48335900  1
