# generated using pymatgen
data_BaSrV4(NiO4)4
_symmetry_space_group_name_H-M   'P 1'
_cell_length_a   9.59196910
_cell_length_b   9.59196910
_cell_length_c   9.59196910
_cell_angle_alpha   100.73277274
_cell_angle_beta   100.73277274
_cell_angle_gamma   128.86906186
_symmetry_Int_Tables_number   1
_chemical_formula_structural   BaSrV4(NiO4)4
_chemical_formula_sum   'Ba2 Sr2 V8 Ni8 O32'
_cell_volume   619.83906050
_cell_formula_units_Z   2
loop_
 _symmetry_equiv_pos_site_id
 _symmetry_equiv_pos_as_xyz
  1  'x, y, z'
loop_
 _atom_site_type_symbol
 _atom_site_label
 _atom_site_symmetry_multiplicity
 _atom_site_fract_x
 _atom_site_fract_y
 _atom_site_fract_z
 _atom_site_occupancy
  Ba  Ba0  1  0.00000000  0.00000000  0.00000000  1
  Ba  Ba1  1  0.50000000  0.50000000  -0.00000000  1
  Sr  Sr2  1  0.75000000  0.25000000  0.50000000  1
  Sr  Sr3  1  0.25000000  0.75000000  0.50000000  1
  V  V4  1  0.62202956  0.95453002  0.82753660  1
  V  V5  1  0.12202956  0.29449296  0.66749954  1
  V  V6  1  0.62699342  0.45453002  0.33250046  1
  V  V7  1  0.12699342  0.79449296  0.17246340  1
  V  V8  1  0.20550704  0.37797044  0.33250046  1
  V  V9  1  0.54546998  0.87797044  0.17246340  1
  V  V10  1  0.70550704  0.37300658  0.82753660  1
  V  V11  1  0.04546998  0.87300658  0.66749954  1
  Ni  Ni12  1  0.41918142  0.08081858  1.00000000  1
  Ni  Ni13  1  0.91918141  0.91918141  0.33836283  1
  Ni  Ni14  1  0.66742634  0.83257366  0.50000000  1
  Ni  Ni15  1  0.16742635  0.66742634  0.83485269  1
  Ni  Ni16  1  0.08081858  0.41918142  1.00000000  1
  Ni  Ni17  1  0.58081859  0.58081859  0.66163717  1
  Ni  Ni18  1  0.33257366  0.16742635  0.50000000  1
  Ni  Ni19  1  0.83257366  0.33257366  0.16514731  1
  O  O20  1  0.59855613  0.08719708  0.16765006  1
  O  O21  1  0.09855613  0.93090607  0.51135905  1
  O  O22  1  0.83183487  0.81704850  0.66329307  1
  O  O23  1  0.33183487  0.66854180  0.01478637  1
  O  O24  1  0.91954702  0.43090607  0.83234994  1
  O  O25  1  0.41954702  0.58719708  0.48864095  1
  O  O26  1  0.15375543  0.16854180  0.33670693  1
  O  O27  1  0.65375543  0.31704850  0.98521363  1
  O  O28  1  0.56909393  0.40144387  0.48864095  1
  O  O29  1  0.41280292  0.90144387  0.83234994  1
  O  O30  1  0.83145820  0.16816513  0.98521363  1
  O  O31  1  0.68295150  0.66816513  0.33670693  1
  O  O32  1  0.91280292  0.08045298  0.51135905  1
  O  O33  1  0.06909393  0.58045298  0.16765006  1
  O  O34  1  0.18295150  0.84624457  0.01478637  1
  O  O35  1  0.33145820  0.34624457  0.66329307  1
  O  O36  1  0.52790518  0.86707098  0.34502598  1
  O  O37  1  0.02790518  0.68287920  0.66083420  1
  O  O38  1  0.23195523  0.06318082  0.83901340  1
  O  O39  1  0.73195523  0.89294183  0.16877441  1
  O  O40  1  0.52204500  0.18287920  0.65497402  1
  O  O41  1  0.02204500  0.36707098  0.33916580  1
  O  O42  1  0.22416742  0.39294183  0.16098660  1
  O  O43  1  0.72416742  0.56318082  0.83122559  1
  O  O44  1  0.81712080  0.47209482  0.33916580  1
  O  O45  1  0.63292902  0.97209482  0.65497402  1
  O  O46  1  0.60705817  0.76804477  0.83122559  1
  O  O47  1  0.43681918  0.26804477  0.16098660  1
  O  O48  1  0.13292902  0.47795500  0.66083420  1
  O  O49  1  0.31712080  0.97795500  0.34502598  1
  O  O50  1  0.93681918  0.77583258  0.16877441  1
  O  O51  1  0.10705817  0.27583258  0.83901340  1
