# generated using pymatgen
data_S
_symmetry_space_group_name_H-M   'P 1'
_cell_length_a   7.75873527
_cell_length_b   11.65259536
_cell_length_c   21.74094906
_cell_angle_alpha   90.00000000
_cell_angle_beta   90.00000000
_cell_angle_gamma   90.00000000
_symmetry_Int_Tables_number   1
_chemical_formula_structural   S
_chemical_formula_sum   S72
_cell_volume   1965.58621662
_cell_formula_units_Z   72
loop_
 _symmetry_equiv_pos_site_id
 _symmetry_equiv_pos_as_xyz
  1  'x, y, z'
loop_
 _atom_site_type_symbol
 _atom_site_label
 _atom_site_symmetry_multiplicity
 _atom_site_fract_x
 _atom_site_fract_y
 _atom_site_fract_z
 _atom_site_occupancy
  S  S0  1  0.02874543  0.69483836  0.76446011  1
  S  S1  1  0.66401332  0.46078879  0.75681228  1
  S  S2  1  0.88788455  0.55835704  0.60685477  1
  S  S3  1  0.46740873  0.57177611  0.73444593  1
  S  S4  1  0.16401332  0.03921121  0.24318772  1
  S  S5  1  0.33256699  0.69483925  0.25957888  1
  S  S6  1  0.33598668  0.96078879  0.74318772  1
  S  S7  1  0.09753169  0.79148630  0.10822879  1
  S  S8  1  0.14528824  0.49292731  0.15637370  1
  S  S9  1  0.53259127  0.07177611  0.76555407  1
  S  S10  1  0.48870896  0.79859475  0.43539231  1
  S  S11  1  0.61211545  0.44164296  0.10685477  1
  S  S12  1  0.51129104  0.29859475  0.06460769  1
  S  S13  1  0.52874543  0.80516164  0.23553989  1
  S  S14  1  0.66743301  0.19483925  0.24042112  1
  S  S15  1  0.03360804  0.40977747  0.08340653  1
  S  S16  1  0.33817602  0.92962022  0.59307352  1
  S  S17  1  0.16194779  0.33814919  0.90978467  1
  S  S18  1  0.31802266  0.00075153  0.94403438  1
  S  S19  1  0.01718873  0.67572894  0.91548777  1
  S  S20  1  0.53360804  0.09022253  0.91659347  1
  S  S21  1  0.19712663  0.26616662  0.55728312  1
  S  S22  1  0.83805221  0.83814919  0.59021533  1
  S  S23  1  0.49591433  0.06255766  0.56651515  1
  S  S24  1  0.38788455  0.94164296  0.39314523  1
  S  S25  1  0.46639196  0.59022253  0.58340653  1
  S  S26  1  0.01129104  0.20140525  0.93539231  1
  S  S27  1  0.42938525  0.86020959  0.67302927  1
  S  S28  1  0.83256699  0.80516075  0.74042112  1
  S  S29  1  0.57061475  0.36020959  0.82697073  1
  S  S30  1  0.83598668  0.53921121  0.25681228  1
  S  S31  1  0.42908988  0.59417391  0.32916421  1
  S  S32  1  0.13506855  0.75906123  0.84376029  1
  S  S33  1  0.07091012  0.40582609  0.82916421  1
  S  S34  1  0.48281127  0.32427106  0.41548777  1
  S  S35  1  0.11211545  0.05835704  0.89314523  1
  S  S36  1  0.97125457  0.19483836  0.73553989  1
  S  S37  1  0.63506855  0.74093877  0.15623971  1
  S  S38  1  0.98281127  0.17572894  0.58451223  1
  S  S39  1  0.81802266  0.49924847  0.05596562  1
  S  S40  1  0.92938525  0.63979041  0.32697073  1
  S  S41  1  0.92908988  0.90582609  0.67083579  1
  S  S42  1  0.90246831  0.29148630  0.39177121  1
  S  S43  1  0.86493145  0.25906123  0.65623971  1
  S  S44  1  0.07061475  0.13979041  0.17302927  1
  S  S45  1  0.80287337  0.76616662  0.94271688  1
  S  S46  1  0.69712663  0.23383338  0.44271688  1
  S  S47  1  0.36493145  0.24093877  0.34376029  1
  S  S48  1  0.98870896  0.70140525  0.56460769  1
  S  S49  1  0.64528824  0.00707269  0.84362630  1
  S  S50  1  0.85471176  0.99292731  0.34362630  1
  S  S51  1  0.30287337  0.73383338  0.05728312  1
  S  S52  1  0.50408567  0.56255766  0.93348485  1
  S  S53  1  0.68197734  0.50075153  0.55596562  1
  S  S54  1  0.16743301  0.30516075  0.75957888  1
  S  S55  1  0.83817602  0.57037978  0.40692648  1
  S  S56  1  0.99591433  0.43744234  0.43348485  1
  S  S57  1  0.66182398  0.42962022  0.90692648  1
  S  S58  1  0.57091012  0.09417391  0.17083579  1
  S  S59  1  0.47125457  0.30516164  0.26446011  1
  S  S60  1  0.00408567  0.93744234  0.06651515  1
  S  S61  1  0.96740873  0.92822389  0.26555407  1
  S  S62  1  0.03259127  0.42822389  0.23444593  1
  S  S63  1  0.18197734  0.99924847  0.44403438  1
  S  S64  1  0.66194779  0.16185081  0.09021533  1
  S  S65  1  0.51718873  0.82427106  0.08451223  1
  S  S66  1  0.40246831  0.20851370  0.60822879  1
  S  S67  1  0.33805221  0.66185081  0.40978467  1
  S  S68  1  0.16182398  0.07037978  0.09307352  1
  S  S69  1  0.59753169  0.70851370  0.89177121  1
  S  S70  1  0.96639196  0.90977747  0.41659347  1
  S  S71  1  0.35471176  0.50707269  0.65637370  1
