# generated using pymatgen
data_Hf2N2O
_symmetry_space_group_name_H-M   'P 1'
_cell_length_a   8.66291604
_cell_length_b   8.66571353
_cell_length_c   8.68536169
_cell_angle_alpha   109.33017399
_cell_angle_beta   109.60259514
_cell_angle_gamma   109.43053440
_symmetry_Int_Tables_number   1
_chemical_formula_structural   Hf2N2O
_chemical_formula_sum   'Hf16 N16 O8'
_cell_volume   502.22945912
_cell_formula_units_Z   8
loop_
 _symmetry_equiv_pos_site_id
 _symmetry_equiv_pos_as_xyz
  1  'x, y, z'
loop_
 _atom_site_type_symbol
 _atom_site_label
 _atom_site_symmetry_multiplicity
 _atom_site_fract_x
 _atom_site_fract_y
 _atom_site_fract_z
 _atom_site_occupancy
  Hf  Hf0  1  0.75942780  0.21585904  0.96772716  1
  Hf  Hf1  1  0.99852558  0.99301260  0.98866971  1
  Hf  Hf2  1  0.53165304  0.74584935  0.77554522  1
  Hf  Hf3  1  0.02517487  0.75052427  0.27866053  1
  Hf  Hf4  1  0.49946560  0.00041572  0.50249749  1
  Hf  Hf5  1  0.50259525  0.50212683  0.99177686  1
  Hf  Hf6  1  0.25211345  0.28277019  0.54127835  1
  Hf  Hf7  1  0.71919474  0.96963676  0.26614799  1
  Hf  Hf8  1  0.28447996  0.03387392  0.74655699  1
  Hf  Hf9  1  0.20720932  0.46573874  0.25107167  1
  Hf  Hf10  1  0.78721809  0.54088672  0.74777590  1
  Hf  Hf11  1  0.74669623  0.71281586  0.46276339  1
  Hf  Hf12  1  0.99811673  0.48934755  0.49897402  1
  Hf  Hf13  1  0.46657739  0.24382024  0.21685708  1
  Hf  Hf14  1  0.97248865  0.25025039  0.71662026  1
  Hf  Hf15  1  0.24143108  0.78689496  0.02797399  1
  N  N16  1  0.00776900  0.23698543  0.96865344  1
  N  N17  1  0.95178812  0.46916690  0.22613754  1
  N  N18  1  0.25696627  0.02931688  0.48168349  1
  N  N19  1  0.49309720  0.96254537  0.73475004  1
  N  N20  1  0.76858683  0.73596499  0.22904178  1
  N  N21  1  0.50714923  0.04198581  0.27087829  1
  N  N22  1  0.27487295  0.54532178  0.53145242  1
  N  N23  1  0.23169650  0.26397257  0.77703219  1
  N  N24  1  0.76181441  0.77595951  0.72925701  1
  N  N25  1  0.73672560  0.96672352  0.51515260  1
  N  N26  1  0.96544081  0.22466941  0.44944598  1
  N  N27  1  0.53914202  0.48793673  0.76739238  1
  N  N28  1  0.22475879  0.98893208  0.95050257  1
  N  N29  1  0.04851731  0.53278649  0.77311835  1
  N  N30  1  0.72548901  0.45636373  0.46282307  1
  N  N31  1  0.99443197  0.76506865  0.03746557  1
  O  O32  1  0.28073088  0.72507102  0.26432132  1
  O  O33  1  0.54705637  0.27774464  0.01672782  1
  O  O34  1  0.24558454  0.23193501  0.27320620  1
  O  O35  1  0.45985501  0.51018097  0.23501527  1
  O  O36  1  0.03322892  0.77661600  0.54959563  1
  O  O37  1  0.77153222  0.01085146  0.04794223  1
  O  O38  1  0.72461822  0.27309340  0.73920688  1
  O  O39  1  0.45678404  0.72698654  0.98830232  1
