# generated using pymatgen
data_Ca2P6O17
_symmetry_space_group_name_H-M   'P 1'
_cell_length_a   5.86269309
_cell_length_b   18.40470400
_cell_length_c   7.79803345
_cell_angle_alpha   90.00000000
_cell_angle_beta   112.06862131
_cell_angle_gamma   90.00000000
_symmetry_Int_Tables_number   1
_chemical_formula_structural   Ca2P6O17
_chemical_formula_sum   'Ca4 P12 O34'
_cell_volume   779.76984837
_cell_formula_units_Z   2
loop_
 _symmetry_equiv_pos_site_id
 _symmetry_equiv_pos_as_xyz
  1  'x, y, z'
loop_
 _atom_site_type_symbol
 _atom_site_label
 _atom_site_symmetry_multiplicity
 _atom_site_fract_x
 _atom_site_fract_y
 _atom_site_fract_z
 _atom_site_occupancy
  Ca  Ca0  1  0.90672400  0.42669900  0.89471200  1.0
  Ca  Ca1  1  0.91132000  0.07446300  0.39413300  1.0
  Ca  Ca2  1  0.09327600  0.92669900  0.10528800  1.0
  Ca  Ca3  1  0.08868000  0.57446300  0.60586700  1.0
  P  P4  1  0.68453600  0.67960700  0.77298700  1.0
  P  P5  1  0.72683700  0.66769700  0.16659000  1.0
  P  P6  1  0.68456400  0.82120000  0.27324100  1.0
  P  P7  1  0.51743400  0.02834100  0.94365800  1.0
  P  P8  1  0.48256600  0.52834100  0.05634200  1.0
  P  P9  1  0.72823300  0.83297600  0.66881600  1.0
  P  P10  1  0.27316300  0.16769700  0.83341000  1.0
  P  P11  1  0.50631800  0.47246800  0.44615000  1.0
  P  P12  1  0.49368200  0.97246800  0.55385000  1.0
  P  P13  1  0.31546400  0.17960700  0.22701300  1.0
  P  P14  1  0.27176700  0.33297600  0.33118400  1.0
  P  P15  1  0.31543600  0.32120000  0.72675900  1.0
  O  O16  1  0.93885500  0.86197300  0.82666400  1.0
  O  O17  1  0.80394800  0.68804600  0.99931300  1.0
  O  O18  1  0.89184800  0.84032300  0.21610000  1.0
  O  O19  1  0.93562800  0.63778000  0.32426500  1.0
  O  O20  1  0.76594200  0.01330800  0.09224100  1.0
  O  O21  1  0.71309400  0.50261700  0.03785200  1.0
  O  O22  1  0.54676500  0.36397100  0.78353000  1.0
  O  O23  1  0.80095400  0.81283600  0.49947100  1.0
  O  O24  1  0.50724500  0.11663600  0.91340800  1.0
  O  O25  1  0.89187900  0.66053000  0.71601800  1.0
  O  O26  1  0.39975100  0.23695900  0.78762100  1.0
  O  O27  1  0.60024900  0.73695900  0.21237900  1.0
  O  O28  1  0.76207500  0.48895300  0.58216400  1.0
  O  O29  1  0.49275500  0.61663600  0.08659200  1.0
  O  O30  1  0.71438100  0.99150100  0.51249700  1.0
  O  O31  1  0.54522400  0.13614300  0.28336100  1.0
  O  O32  1  0.45323500  0.86397100  0.21647000  1.0
  O  O33  1  0.46887000  0.50403700  0.24778300  1.0
  O  O34  1  0.28690600  0.00261700  0.96214800  1.0
  O  O35  1  0.50374500  0.38513300  0.40495400  1.0
  O  O36  1  0.23405800  0.51330800  0.90775900  1.0
  O  O37  1  0.40123900  0.26367800  0.28801000  1.0
  O  O38  1  0.59876100  0.76367800  0.71199000  1.0
  O  O39  1  0.10815200  0.34032300  0.78390000  1.0
  O  O40  1  0.49625500  0.88513300  0.59504600  1.0
  O  O41  1  0.19605200  0.18804600  0.00068700  1.0
  O  O42  1  0.53113000  0.00403700  0.75221700  1.0
  O  O43  1  0.45477600  0.63614300  0.71663900  1.0
  O  O44  1  0.28561900  0.49150100  0.48750300  1.0
  O  O45  1  0.23792500  0.98895300  0.41783600  1.0
  O  O46  1  0.06114500  0.36197300  0.17333600  1.0
  O  O47  1  0.10812100  0.16053000  0.28398200  1.0
  O  O48  1  0.19904600  0.31283600  0.50052900  1.0
  O  O49  1  0.06437200  0.13778000  0.67573500  1.0
