# generated using pymatgen
data_Sr(AlS2)2
_symmetry_space_group_name_H-M   'P 1'
_cell_length_a   6.09545465
_cell_length_b   6.09545465
_cell_length_c   5.92749699
_cell_angle_alpha   60.91405758
_cell_angle_beta   60.91405758
_cell_angle_gamma   76.33124228
_symmetry_Int_Tables_number   1
_chemical_formula_structural   Sr(AlS2)2
_chemical_formula_sum   'Sr1 Al2 S4'
_cell_volume   168.18939186
_cell_formula_units_Z   1
loop_
 _symmetry_equiv_pos_site_id
 _symmetry_equiv_pos_as_xyz
  1  'x, y, z'
loop_
 _atom_site_type_symbol
 _atom_site_label
 _atom_site_symmetry_multiplicity
 _atom_site_fract_x
 _atom_site_fract_y
 _atom_site_fract_z
 _atom_site_occupancy
  Sr  Sr0  1  0.00001814  0.99998186  0.00000000  1
  Al  Al1  1  0.49994997  0.50005003  0.50000000  1
  Al  Al2  1  0.50002540  0.49997460  0.00000000  1
  S  S3  1  0.82343458  0.49998948  0.58830393  1
  S  S4  1  0.50001052  0.17656542  0.41169607  1
  S  S5  1  0.50001437  0.82344700  0.08828576  1
  S  S6  1  0.17655300  0.49998563  0.91171424  1
