# generated using pymatgen
data_Hf2N2O
_symmetry_space_group_name_H-M   'P 1'
_cell_length_a   8.64856287
_cell_length_b   8.66312943
_cell_length_c   8.70102845
_cell_angle_alpha   109.46578795
_cell_angle_beta   109.55593490
_cell_angle_gamma   109.24587497
_symmetry_Int_Tables_number   1
_chemical_formula_structural   Hf2N2O
_chemical_formula_sum   'Hf16 N16 O8'
_cell_volume   502.74218827
_cell_formula_units_Z   8
loop_
 _symmetry_equiv_pos_site_id
 _symmetry_equiv_pos_as_xyz
  1  'x, y, z'
loop_
 _atom_site_type_symbol
 _atom_site_label
 _atom_site_symmetry_multiplicity
 _atom_site_fract_x
 _atom_site_fract_y
 _atom_site_fract_z
 _atom_site_occupancy
  Hf  Hf0  1  0.99848230  0.00987318  0.49937401  1
  Hf  Hf1  1  0.25094593  0.70780266  0.46407133  1
  Hf  Hf2  1  0.77808431  0.52878209  0.24954564  1
  Hf  Hf3  1  0.29462807  0.04522743  0.25821452  1
  Hf  Hf4  1  0.74133243  0.78469024  0.03484568  1
  Hf  Hf5  1  0.95861898  0.73459402  0.70730167  1
  Hf  Hf6  1  0.48777310  0.49104625  0.48752976  1
  Hf  Hf7  1  0.00331949  0.49072127  0.99432061  1
  Hf  Hf8  1  0.51011276  0.00211734  0.01176164  1
  Hf  Hf9  1  0.03317741  0.25903477  0.28535378  1
  Hf  Hf10  1  0.47165776  0.74983744  0.21577537  1
  Hf  Hf11  1  0.53340869  0.25109225  0.78473760  1
  Hf  Hf12  1  0.25788660  0.22192731  0.96619490  1
  Hf  Hf13  1  0.71427274  0.96903469  0.74969463  1
  Hf  Hf14  1  0.21451827  0.46328097  0.74919411  1
  Hf  Hf15  1  0.74904918  0.28501703  0.53631403  1
  N  N16  1  0.73289690  0.76095835  0.27154399  1
  N  N17  1  0.98912992  0.46310021  0.22988255  1
  N  N18  1  0.51213792  0.74498330  0.47039285  1
  N  N19  1  0.53916784  0.03199483  0.26812017  1
  N  N20  1  0.53528291  0.27300595  0.04384961  1
  N  N21  1  0.26746309  0.23128914  0.72398888  1
  N  N22  1  0.25843930  0.26702769  0.22552710  1
  N  N23  1  0.73038929  0.49419801  0.45728106  1
  N  N24  1  0.48556131  0.26079727  0.53427013  1
  N  N25  1  0.01286089  0.55052592  0.77864185  1
  N  N26  1  0.23987935  0.46664003  0.01577013  1
  N  N27  1  0.77474271  0.22576060  0.76634368  1
  N  N28  1  0.77287481  0.04140768  0.03153768  1
  N  N29  1  0.46794975  0.72714273  0.95166134  1
  N  N30  1  0.27394300  0.51576536  0.54693376  1
  N  N31  1  0.95061023  0.22234627  0.48440576  1
  O  O32  1  0.96185692  0.00303423  0.73436863  1
  O  O33  1  0.03863980  0.98501123  0.26729289  1
  O  O34  1  0.45039987  0.96582971  0.72622232  1
  O  O35  1  0.05725084  0.78153585  0.52511766  1
  O  O36  1  0.22086792  0.77507640  0.23624854  1
  O  O37  1  0.74845694  0.72928527  0.77831604  1
  O  O38  1  0.75648185  0.53389895  0.97800751  1
  O  O39  1  0.22544958  0.95530604  0.96005058  1
