# generated using pymatgen
data_Zr(Fe2Ge3)2
_symmetry_space_group_name_H-M   'P 1'
_cell_length_a   6.14271648
_cell_length_b   6.14271648
_cell_length_c   6.15978946
_cell_angle_alpha   60.09181492
_cell_angle_beta   60.09181492
_cell_angle_gamma   89.99973547
_symmetry_Int_Tables_number   1
_chemical_formula_structural   Zr(Fe2Ge3)2
_chemical_formula_sum   'Zr1 Fe4 Ge6'
_cell_volume   164.80628546
_cell_formula_units_Z   1
loop_
 _symmetry_equiv_pos_site_id
 _symmetry_equiv_pos_as_xyz
  1  'x, y, z'
loop_
 _atom_site_type_symbol
 _atom_site_label
 _atom_site_symmetry_multiplicity
 _atom_site_fract_x
 _atom_site_fract_y
 _atom_site_fract_z
 _atom_site_occupancy
  Zr  Zr0  1  0.00004833  0.00004833  0.00001171  1
  Fe  Fe1  1  0.24782538  0.59395948  0.15821107  1
  Fe  Fe2  1  0.40599366  0.40599366  0.84179826  1
  Fe  Fe3  1  0.59395948  0.24782538  0.15821107  1
  Fe  Fe4  1  0.75216586  0.75216586  0.84172012  1
  Ge  Ge5  1  0.88345988  0.52778436  0.58872185  1
  Ge  Ge6  1  0.52778436  0.88345988  0.58872185  1
  Ge  Ge7  1  0.11653631  0.11653631  0.41128588  1
  Ge  Ge8  1  0.99998788  0.50003008  0.99999484  1
  Ge  Ge9  1  0.47220373  0.47220373  0.41125015  1
  Ge  Ge10  1  0.50003008  0.99998788  0.99999484  1
