# generated using pymatgen
data_AlGaN2
_symmetry_space_group_name_H-M   'P 1'
_cell_length_a   5.47799319
_cell_length_b   5.47799319
_cell_length_c   5.47799319
_cell_angle_alpha   131.83079512
_cell_angle_beta   131.83079512
_cell_angle_gamma   70.49639923
_symmetry_Int_Tables_number   1
_chemical_formula_structural   AlGaN2
_chemical_formula_sum   'Al2 Ga2 N4'
_cell_volume   89.42668245
_cell_formula_units_Z   2
loop_
 _symmetry_equiv_pos_site_id
 _symmetry_equiv_pos_as_xyz
  1  'x, y, z'
loop_
 _atom_site_type_symbol
 _atom_site_label
 _atom_site_symmetry_multiplicity
 _atom_site_fract_x
 _atom_site_fract_y
 _atom_site_fract_z
 _atom_site_occupancy
  Al  Al0  1  0.25000000  0.75000000  0.50000000  1
  Al  Al1  1  0.50000000  0.50000000  0.00000000  1
  Ga  Ga2  1  0.75000000  0.25000000  0.50000000  1
  Ga  Ga3  1  0.00000000  0.00000000  0.00000000  1
  N  N4  1  0.13841448  0.62500000  0.01341448  1
  N  N5  1  0.61158552  0.12500000  0.98658552  1
  N  N6  1  0.37500000  0.38841448  0.51341448  1
  N  N7  1  0.87500000  0.86158552  0.48658552  1
