# generated using pymatgen
data_Ba(AlSe2)2
_symmetry_space_group_name_H-M   'P 1'
_cell_length_a   6.57690097
_cell_length_b   6.57690097
_cell_length_c   6.22709134
_cell_angle_alpha   61.75705380
_cell_angle_beta   61.75705380
_cell_angle_gamma   77.05993667
_symmetry_Int_Tables_number   1
_chemical_formula_structural   Ba(AlSe2)2
_chemical_formula_sum   'Ba1 Al2 Se4'
_cell_volume   209.03999121
_cell_formula_units_Z   1
loop_
 _symmetry_equiv_pos_site_id
 _symmetry_equiv_pos_as_xyz
  1  'x, y, z'
loop_
 _atom_site_type_symbol
 _atom_site_label
 _atom_site_symmetry_multiplicity
 _atom_site_fract_x
 _atom_site_fract_y
 _atom_site_fract_z
 _atom_site_occupancy
  Ba  Ba0  1  0.00006863  0.99993137  0.00000000  1
  Al  Al1  1  0.50002756  0.49997244  0.50000000  1
  Al  Al2  1  0.50006790  0.49993210  0.00000000  1
  Se  Se3  1  0.81996873  0.49996218  0.59009451  1
  Se  Se4  1  0.50003782  0.18003127  0.40990549  1
  Se  Se5  1  0.50003332  0.81987396  0.09010797  1
  Se  Se6  1  0.18012604  0.49996668  0.90989203  1
