# generated using pymatgen
data_Bi2B8O15
_symmetry_space_group_name_H-M   'P 1'
_cell_length_a   4.31910000
_cell_length_b   22.17500000
_cell_length_c   6.47389960
_cell_angle_alpha   90.00000000
_cell_angle_beta   105.44000383
_cell_angle_gamma   90.00000000
_symmetry_Int_Tables_number   1
_chemical_formula_structural   Bi2B8O15
_chemical_formula_sum   'Bi4 B16 O30'
_cell_volume   597.66692801
_cell_formula_units_Z   2
loop_
 _symmetry_equiv_pos_site_id
 _symmetry_equiv_pos_as_xyz
  1  'x, y, z'
loop_
 _atom_site_type_symbol
 _atom_site_label
 _atom_site_symmetry_multiplicity
 _atom_site_fract_x
 _atom_site_fract_y
 _atom_site_fract_z
 _atom_site_occupancy
  Bi  Bi0  1  0.17504300  0.64746700  0.33085000  1.0
  Bi  Bi1  1  0.82495700  0.14746700  0.66915000  1.0
  Bi  Bi2  1  0.38925900  0.78385600  0.10575500  1.0
  Bi  Bi3  1  0.61074100  0.28385600  0.89424500  1.0
  B  B4  1  0.55923000  0.98961000  0.43609000  1.0
  B  B5  1  0.44077000  0.48961000  0.56391000  1.0
  B  B6  1  0.53610000  0.96249000  0.78154000  1.0
  B  B7  1  0.46390000  0.46249000  0.21846000  1.0
  B  B8  1  0.31317000  0.89892000  0.48942000  1.0
  B  B9  1  0.68683000  0.39892000  0.51058000  1.0
  B  B10  1  0.13724000  0.78762000  0.51097000  1.0
  B  B11  1  0.86276000  0.28762000  0.48903000  1.0
  B  B12  1  0.71442000  0.77792000  0.73495000  1.0
  B  B13  1  0.28558000  0.27792000  0.26505000  1.0
  B  B14  1  0.57070000  0.14360000  0.08050000  1.0
  B  B15  1  0.42930000  0.64360000  0.91950000  1.0
  B  B16  1  0.14505000  0.15134000  0.30329000  1.0
  B  B17  1  0.85495000  0.65134000  0.69671000  1.0
  B  B18  1  0.57800000  0.03117000  0.09115000  1.0
  B  B19  1  0.42200000  0.53117000  0.90885000  1.0
  O  O20  1  0.63853000  0.00040000  0.64995000  1.0
  O  O21  1  0.36147000  0.50040000  0.35005000  1.0
  O  O22  1  0.39788000  0.93892000  0.35525000  1.0
  O  O23  1  0.60212000  0.43892000  0.64475000  1.0
  O  O24  1  0.37769000  0.91133000  0.70198000  1.0
  O  O25  1  0.62231000  0.41133000  0.29802000  1.0
  O  O26  1  0.17482000  0.84591800  0.41323000  1.0
  O  O27  1  0.82518000  0.34591800  0.58677000  1.0
  O  O28  1  0.82204000  0.78498000  0.55483000  1.0
  O  O29  1  0.17796000  0.28498000  0.44517000  1.0
  O  O30  1  0.16247000  0.73974000  0.36081000  1.0
  O  O31  1  0.83753000  0.23974000  0.63919000  1.0
  O  O32  1  0.91558000  0.79139000  0.93305000  1.0
  O  O33  1  0.08442000  0.29139000  0.06695000  1.0
  O  O34  1  0.38731000  0.78044000  0.71191000  1.0
  O  O35  1  0.61269000  0.28044000  0.28809000  1.0
  O  O36  1  0.82431000  0.15230000  0.28254000  1.0
  O  O37  1  0.17569000  0.65230000  0.71746000  1.0
  O  O38  1  0.34915000  0.14185000  0.49891000  1.0
  O  O39  1  0.65085000  0.64185000  0.50109000  1.0
  O  O40  1  0.59985000  0.18986000  0.92221000  1.0
  O  O41  1  0.40015000  0.68986000  0.07779000  1.0
  O  O42  1  0.25206000  0.14871000  0.12423000  1.0
  O  O43  1  0.74794000  0.64871000  0.87577000  1.0
  O  O44  1  0.60285000  0.08321000  0.99098000  1.0
  O  O45  1  0.39715000  0.58321000  0.00902000  1.0
  O  O46  1  0.64381000  0.03058000  0.30607000  1.0
  O  O47  1  0.35619000  0.53058000  0.69393000  1.0
  O  O48  1  0.56819000  0.97820000  0.98783000  1.0
  O  O49  1  0.43181000  0.47820000  0.01217000  1.0
