# generated using pymatgen
data_InBiO3
_symmetry_space_group_name_H-M   'P 1'
_cell_length_a   6.01972363
_cell_length_b   6.01972363
_cell_length_c   6.01972363
_cell_angle_alpha   58.66469952
_cell_angle_beta   58.66469953
_cell_angle_gamma   58.66469953
_symmetry_Int_Tables_number   1
_chemical_formula_structural   InBiO3
_chemical_formula_sum   'In2 Bi2 O6'
_cell_volume   149.53901944
_cell_formula_units_Z   2
loop_
 _symmetry_equiv_pos_site_id
 _symmetry_equiv_pos_as_xyz
  1  'x, y, z'
loop_
 _atom_site_type_symbol
 _atom_site_label
 _atom_site_symmetry_multiplicity
 _atom_site_fract_x
 _atom_site_fract_y
 _atom_site_fract_z
 _atom_site_occupancy
  In  In0  1  0.48722380  0.48722380  0.48722380  1
  In  In1  1  0.98722380  0.98722380  0.98722380  1
  Bi  Bi2  1  0.20376303  0.20376303  0.20376303  1
  Bi  Bi3  1  0.70376303  0.70376303  0.70376303  1
  O  O4  1  0.29412381  0.84491566  0.64286807  1
  O  O5  1  0.84491566  0.64286807  0.29412381  1
  O  O6  1  0.64286807  0.29412381  0.84491566  1
  O  O7  1  0.34491566  0.79412381  0.14286807  1
  O  O8  1  0.14286807  0.34491566  0.79412381  1
  O  O9  1  0.79412381  0.14286807  0.34491566  1
