# generated using pymatgen
data_NaCa2Nb8(BiO4)9
_symmetry_space_group_name_H-M   'P 1'
_cell_length_a   25.32625398
_cell_length_b   5.54217773
_cell_length_c   5.63527015
_cell_angle_alpha   89.75600465
_cell_angle_beta   90.00000000
_cell_angle_gamma   90.00000000
_symmetry_Int_Tables_number   1
_chemical_formula_structural   NaCa2Nb8(BiO4)9
_chemical_formula_sum   'Na1 Ca2 Nb8 Bi9 O36'
_cell_volume   790.97400130
_cell_formula_units_Z   1
loop_
 _symmetry_equiv_pos_site_id
 _symmetry_equiv_pos_as_xyz
  1  'x, y, z'
loop_
 _atom_site_type_symbol
 _atom_site_label
 _atom_site_symmetry_multiplicity
 _atom_site_fract_x
 _atom_site_fract_y
 _atom_site_fract_z
 _atom_site_occupancy
  Na  Na0  1  0.50000000  0.26487378  0.24894585  1
  Ca  Ca1  1  0.00000000  0.75737665  0.25591481  1
  Ca  Ca2  1  0.00000000  0.24162773  0.75536247  1
  Nb  Nb3  1  0.41670868  0.76013809  0.22981765  1
  Nb  Nb4  1  0.91917972  0.25697381  0.22576062  1
  Nb  Nb5  1  0.08082028  0.25697381  0.22576062  1
  Nb  Nb6  1  0.58329132  0.76013809  0.22981765  1
  Nb  Nb7  1  0.08068365  0.74329327  0.72608210  1
  Nb  Nb8  1  0.58248870  0.25358109  0.72242271  1
  Nb  Nb9  1  0.41751130  0.25358109  0.72242271  1
  Nb  Nb10  1  0.91931635  0.74329327  0.72608210  1
  Bi  Bi11  1  0.29868182  0.27693806  0.31106376  1
  Bi  Bi12  1  0.80168835  0.77906786  0.31303034  1
  Bi  Bi13  1  0.19831165  0.77906786  0.31303034  1
  Bi  Bi14  1  0.70131818  0.27693806  0.31106376  1
  Bi  Bi15  1  0.19857964  0.21816093  0.81226744  1
  Bi  Bi16  1  0.70070719  0.71694382  0.81211502  1
  Bi  Bi17  1  0.29929281  0.71694382  0.81211502  1
  Bi  Bi18  1  0.80142036  0.21816093  0.81226744  1
  Bi  Bi19  1  0.50000000  0.76256457  0.77373424  1
  O  O20  1  0.50000000  0.82925789  0.16793782  1
  O  O21  1  0.00000000  0.33578499  0.16570695  1
  O  O22  1  0.00000000  0.66193112  0.66566220  1
  O  O23  1  0.50000000  0.16474082  0.66994600  1
  O  O24  1  0.41442701  0.94743347  0.89653569  1
  O  O25  1  0.91270649  0.44434931  0.89407815  1
  O  O26  1  0.08729351  0.44434931  0.89407815  1
  O  O27  1  0.58557299  0.94743347  0.89653569  1
  O  O28  1  0.08741215  0.55304231  0.39432187  1
  O  O29  1  0.59140401  0.04780474  0.40353227  1
  O  O30  1  0.40859599  0.04780474  0.40353227  1
  O  O31  1  0.91258785  0.55304231  0.39432187  1
  O  O32  1  0.43808047  0.46619674  0.97341620  1
  O  O33  1  0.94015915  0.95547303  0.97910262  1
  O  O34  1  0.05984085  0.95547303  0.97910262  1
  O  O35  1  0.56191953  0.46619674  0.97341620  1
  O  O36  1  0.05973974  0.04164533  0.47911864  1
  O  O37  1  0.56376170  0.54184666  0.48289833  1
  O  O38  1  0.43623830  0.54184666  0.48289833  1
  O  O39  1  0.94026026  0.04164533  0.47911864  1
  O  O40  1  0.25021953  0.98520545  0.03150754  1
  O  O41  1  0.75201431  0.48440311  0.03137238  1
  O  O42  1  0.24798569  0.48440311  0.03137238  1
  O  O43  1  0.74978047  0.98520545  0.03150754  1
  O  O44  1  0.24815974  0.51226152  0.53126164  1
  O  O45  1  0.75036282  0.01258970  0.53020603  1
  O  O46  1  0.24963718  0.01258970  0.53020603  1
  O  O47  1  0.75184026  0.51226152  0.53126164  1
  O  O48  1  0.34526959  0.66586298  0.19056887  1
  O  O49  1  0.84719184  0.16307716  0.19406693  1
  O  O50  1  0.15280816  0.16307716  0.19406693  1
  O  O51  1  0.65473041  0.66586298  0.19056887  1
  O  O52  1  0.15286026  0.83421859  0.69369149  1
  O  O53  1  0.65527523  0.33041120  0.70495605  1
  O  O54  1  0.34472477  0.33041120  0.70495605  1
  O  O55  1  0.84713974  0.83421859  0.69369149  1
