# generated using pymatgen
data_Zr5Ti7O24
_symmetry_space_group_name_H-M   'P 1'
_cell_length_a   14.40602772
_cell_length_b   5.28608941
_cell_length_c   11.28715370
_cell_angle_alpha   62.38689202
_cell_angle_beta   90.00000000
_cell_angle_gamma   90.00000000
_symmetry_Int_Tables_number   1
_chemical_formula_structural   Zr5Ti7O24
_chemical_formula_sum   'Zr10 Ti14 O48'
_cell_volume   761.63121065
_cell_formula_units_Z   2
loop_
 _symmetry_equiv_pos_site_id
 _symmetry_equiv_pos_as_xyz
  1  'x, y, z'
loop_
 _atom_site_type_symbol
 _atom_site_label
 _atom_site_symmetry_multiplicity
 _atom_site_fract_x
 _atom_site_fract_y
 _atom_site_fract_z
 _atom_site_occupancy
  Zr  Zr0  1  0.25178157  0.86315518  0.87581076  1
  Zr  Zr1  1  0.25479064  0.35745126  0.37949414  1
  Zr  Zr2  1  0.25658278  0.63866332  0.62915536  1
  Zr  Zr3  1  0.25044719  0.13738386  0.12571729  1
  Zr  Zr4  1  0.07791001  0.79308981  0.41433304  1
  Zr  Zr5  1  0.92208999  0.79308981  0.91433304  1
  Zr  Zr6  1  0.74955281  0.13738386  0.62571729  1
  Zr  Zr7  1  0.74520936  0.35745126  0.87949414  1
  Zr  Zr8  1  0.74821843  0.86315518  0.37581076  1
  Zr  Zr9  1  0.74341722  0.63866332  0.12915536  1
  Ti  Ti10  1  0.08563655  0.14557070  0.65247870  1
  Ti  Ti11  1  0.08388364  0.64645393  0.16147973  1
  Ti  Ti12  1  0.08519456  0.27899220  0.90468023  1
  Ti  Ti13  1  0.91480544  0.27899220  0.40468023  1
  Ti  Ti14  1  0.91611636  0.64645393  0.66147973  1
  Ti  Ti15  1  0.91436345  0.14557070  0.15247870  1
  Ti  Ti16  1  0.58139382  0.84948615  0.83973300  1
  Ti  Ti17  1  0.58020488  0.34408988  0.34083159  1
  Ti  Ti18  1  0.57785308  0.23040814  0.08989190  1
  Ti  Ti19  1  0.58231562  0.72760828  0.58946890  1
  Ti  Ti20  1  0.42214692  0.23040814  0.58989190  1
  Ti  Ti21  1  0.41768438  0.72760828  0.08946890  1
  Ti  Ti22  1  0.41979512  0.34408988  0.84083159  1
  Ti  Ti23  1  0.41860618  0.84948615  0.33973300  1
  O  O24  1  0.17000244  0.44695243  0.96966661  1
  O  O25  1  0.18095878  0.95697174  0.47412254  1
  O  O26  1  0.17430981  0.86019834  0.71984874  1
  O  O27  1  0.16824028  0.35225876  0.22435304  1
  O  O28  1  0.16735713  0.41769457  0.51857773  1
  O  O29  1  0.17057877  0.30317089  0.76743794  1
  O  O30  1  0.16407508  0.80345248  0.26348985  1
  O  O31  1  0.16381076  0.91396867  0.01772434  1
  O  O32  1  0.02393227  0.06011975  0.81417184  1
  O  O33  1  0.00849559  0.55154164  0.32061885  1
  O  O34  1  0.00548846  0.51644865  0.58145150  1
  O  O35  1  0.00067372  0.03392627  0.05871803  1
  O  O36  1  0.99150441  0.55154164  0.82061885  1
  O  O37  1  0.97606773  0.06011975  0.31417184  1
  O  O38  1  0.99451154  0.51644865  0.08145150  1
  O  O39  1  0.99932628  0.03392627  0.55871803  1
  O  O40  1  0.83592492  0.80345248  0.76348985  1
  O  O41  1  0.83618924  0.91396867  0.51772434  1
  O  O42  1  0.82942123  0.30317089  0.26743794  1
  O  O43  1  0.83264287  0.41769457  0.01857773  1
  O  O44  1  0.81904122  0.95697174  0.97412254  1
  O  O45  1  0.82999756  0.44695243  0.46966661  1
  O  O46  1  0.83175972  0.35225876  0.72435304  1
  O  O47  1  0.82569019  0.86019834  0.21984874  1
  O  O48  1  0.66873670  0.13684241  0.78308166  1
  O  O49  1  0.66570025  0.63713666  0.28656012  1
  O  O50  1  0.67003727  0.54975395  0.53531832  1
  O  O51  1  0.66214130  0.04938172  0.03410996  1
  O  O52  1  0.66261907  0.58514167  0.98228558  1
  O  O53  1  0.66449690  0.08609629  0.48268124  1
  O  O54  1  0.66380954  0.70110460  0.73314967  1
  O  O55  1  0.66131127  0.20220664  0.23285271  1
  O  O56  1  0.51434039  0.95875498  0.67352063  1
  O  O57  1  0.51066680  0.45842541  0.17500161  1
  O  O58  1  0.51077562  0.45479086  0.92398668  1
  O  O59  1  0.51228998  0.95130594  0.42419616  1
  O  O60  1  0.48771002  0.95130594  0.92419616  1
  O  O61  1  0.48922438  0.45479086  0.42398668  1
  O  O62  1  0.48933320  0.45842541  0.67500161  1
  O  O63  1  0.48565961  0.95875498  0.17352063  1
  O  O64  1  0.33868873  0.20220664  0.73285271  1
  O  O65  1  0.33619046  0.70110460  0.23314967  1
  O  O66  1  0.33550310  0.08609629  0.98268124  1
  O  O67  1  0.33738093  0.58514167  0.48228558  1
  O  O68  1  0.32996273  0.54975395  0.03531832  1
  O  O69  1  0.33785870  0.04938172  0.53410996  1
  O  O70  1  0.33429975  0.63713666  0.78656012  1
  O  O71  1  0.33126330  0.13684241  0.28308166  1
