# generated using pymatgen
data_LiSn2(PO3)5
_symmetry_space_group_name_H-M   'P 1'
_cell_length_a   5.52976548
_cell_length_b   9.78335690
_cell_length_c   13.46387981
_cell_angle_alpha   90.00000000
_cell_angle_beta   113.35134022
_cell_angle_gamma   90.00000000
_symmetry_Int_Tables_number   1
_chemical_formula_structural   LiSn2(PO3)5
_chemical_formula_sum   'Li2 Sn4 P10 O30'
_cell_volume   668.73005366
_cell_formula_units_Z   2
loop_
 _symmetry_equiv_pos_site_id
 _symmetry_equiv_pos_as_xyz
  1  'x, y, z'
loop_
 _atom_site_type_symbol
 _atom_site_label
 _atom_site_symmetry_multiplicity
 _atom_site_fract_x
 _atom_site_fract_y
 _atom_site_fract_z
 _atom_site_occupancy
  Li  Li0  1  0.92161294  0.01478280  0.47533673  1.0
  Li  Li1  1  0.92161294  0.98521720  0.97533673  1.0
  Sn  Sn2  1  0.98351196  0.68823464  0.08804555  1.0
  Sn  Sn3  1  0.02452419  0.69222058  0.41678351  1.0
  Sn  Sn4  1  0.98351196  0.31176536  0.58804555  1.0
  Sn  Sn5  1  0.02452419  0.30777942  0.91678351  1.0
  P  P6  1  0.65871480  0.19324213  0.08050895  1.0
  P  P7  1  0.54277852  0.46102554  0.14953207  1.0
  P  P8  1  0.99752619  0.99958911  0.24932667  1.0
  P  P9  1  0.45947318  0.46098744  0.35075922  1.0
  P  P10  1  0.33879063  0.19145960  0.41820509  1.0
  P  P11  1  0.65871480  0.80675787  0.58050895  1.0
  P  P12  1  0.54277852  0.53897446  0.64953207  1.0
  P  P13  1  0.99752619  0.00041089  0.74932667  1.0
  P  P14  1  0.45947318  0.53901256  0.85075922  1.0
  P  P15  1  0.33879063  0.80854040  0.91820509  1.0
  O  O16  1  0.82746579  0.16393253  0.01829410  1.0
  O  O17  1  0.36520177  0.17504758  0.02305327  1.0
  O  O18  1  0.27688810  0.46759862  0.05554944  1.0
  O  O19  1  0.72676870  0.34685254  0.12704872  1.0
  O  O20  1  0.06052744  0.92118038  0.16767555  1.0
  O  O21  1  0.69874305  0.59093363  0.18274539  1.0
  O  O22  1  0.75337233  0.10444142  0.18974896  1.0
  O  O23  1  0.50101307  0.38969486  0.25000221  1.0
  O  O24  1  0.24527521  0.10277687  0.30870467  1.0
  O  O25  1  0.30187796  0.59001485  0.31659708  1.0
  O  O26  1  0.93005592  0.92802584  0.33381593  1.0
  O  O27  1  0.27724832  0.34579758  0.37340677  1.0
  O  O28  1  0.72413921  0.46726715  0.44512392  1.0
  O  O29  1  0.63356631  0.16888408  0.47485776  1.0
  O  O30  1  0.16632439  0.16623999  0.47927843  1.0
  O  O31  1  0.82746579  0.83606747  0.51829410  1.0
  O  O32  1  0.36520177  0.82495242  0.52305327  1.0
  O  O33  1  0.27688810  0.53240138  0.55554944  1.0
  O  O34  1  0.72676870  0.65314746  0.62704872  1.0
  O  O35  1  0.06052744  0.07881962  0.66767555  1.0
  O  O36  1  0.69874305  0.40906637  0.68274539  1.0
  O  O37  1  0.75337233  0.89555858  0.68974896  1.0
  O  O38  1  0.50101307  0.61030514  0.75000221  1.0
  O  O39  1  0.24527521  0.89722313  0.80870467  1.0
  O  O40  1  0.30187796  0.40998515  0.81659708  1.0
  O  O41  1  0.93005592  0.07197416  0.83381593  1.0
  O  O42  1  0.27724832  0.65420242  0.87340677  1.0
  O  O43  1  0.72413921  0.53273285  0.94512392  1.0
  O  O44  1  0.63356631  0.83111592  0.97485776  1.0
  O  O45  1  0.16632439  0.83376001  0.97927843  1.0
