# generated using pymatgen
data_FeP4
_symmetry_space_group_name_H-M   'P 1'
_cell_length_a   5.67180124
_cell_length_b   5.67180124
_cell_length_c   5.52209402
_cell_angle_alpha   90.00000000
_cell_angle_beta   90.00000000
_cell_angle_gamma   127.91093083
_symmetry_Int_Tables_number   1
_chemical_formula_structural   FeP4
_chemical_formula_sum   'Fe2 P8'
_cell_volume   140.15370207
_cell_formula_units_Z   2
loop_
 _symmetry_equiv_pos_site_id
 _symmetry_equiv_pos_as_xyz
  1  'x, y, z'
loop_
 _atom_site_type_symbol
 _atom_site_label
 _atom_site_symmetry_multiplicity
 _atom_site_fract_x
 _atom_site_fract_y
 _atom_site_fract_z
 _atom_site_occupancy
  Fe  Fe0  1  0.17345400  0.82654600  0.75000000  1
  Fe  Fe1  1  0.82654600  0.17345400  0.25000000  1
  P  P2  1  0.00218592  0.63751936  0.13418666  1
  P  P3  1  0.30724775  0.27035741  0.80259045  1
  P  P4  1  0.99781408  0.36248064  0.63418666  1
  P  P5  1  0.27035741  0.30724775  0.19740955  1
  P  P6  1  0.63751936  0.00218592  0.86581334  1
  P  P7  1  0.36248064  0.99781408  0.36581334  1
  P  P8  1  0.69275225  0.72964259  0.30259045  1
  P  P9  1  0.72964259  0.69275225  0.69740955  1
