# generated using pymatgen
data_BPO4
_symmetry_space_group_name_H-M   'P 1'
_cell_length_a   4.46097427
_cell_length_b   4.46097427
_cell_length_c   9.91198683
_cell_angle_alpha   90.00000000
_cell_angle_beta   90.00000000
_cell_angle_gamma   120.00000000
_symmetry_Int_Tables_number   1
_chemical_formula_structural   BPO4
_chemical_formula_sum   'B3 P3 O12'
_cell_volume   170.82474671
_cell_formula_units_Z   3
loop_
 _symmetry_equiv_pos_site_id
 _symmetry_equiv_pos_as_xyz
  1  'x, y, z'
loop_
 _atom_site_type_symbol
 _atom_site_label
 _atom_site_symmetry_multiplicity
 _atom_site_fract_x
 _atom_site_fract_y
 _atom_site_fract_z
 _atom_site_occupancy
  B  B0  1  0.46559282  0.00000000  0.33333333  1
  B  B1  1  0.00000000  0.46559282  0.66666667  1
  B  B2  1  0.53440718  0.53440718  -0.00000000  1
  P  P3  1  0.46482344  0.00000000  0.83333333  1
  P  P4  1  0.53517656  0.53517656  0.50000000  1
  P  P5  1  0.00000000  0.46482344  0.16666667  1
  O  O6  1  0.72848350  0.13553230  0.71889220  1
  O  O7  1  0.28196400  0.40540042  0.10981914  1
  O  O8  1  0.59459958  0.87656358  0.44315247  1
  O  O9  1  0.40704880  0.27151650  0.38555887  1
  O  O10  1  0.13553230  0.72848350  0.28110780  1
  O  O11  1  0.86446770  0.59295120  0.05222553  1
  O  O12  1  0.27151650  0.40704880  0.61444113  1
  O  O13  1  0.59295120  0.86446770  0.94777447  1
  O  O14  1  0.87656358  0.59459958  0.55684753  1
  O  O15  1  0.40540042  0.28196400  0.89018086  1
  O  O16  1  0.71803600  0.12343642  0.22351419  1
  O  O17  1  0.12343642  0.71803600  0.77648581  1
