# generated using pymatgen
data_H2Br
_symmetry_space_group_name_H-M   'P 1'
_cell_length_a   6.32729592
_cell_length_b   6.32729592
_cell_length_c   5.56976487
_cell_angle_alpha   68.27811151
_cell_angle_beta   68.27811151
_cell_angle_gamma   52.21447690
_symmetry_Int_Tables_number   1
_chemical_formula_structural   H2Br
_chemical_formula_sum   'H4 Br2'
_cell_volume   160.56231378
_cell_formula_units_Z   2
loop_
 _symmetry_equiv_pos_site_id
 _symmetry_equiv_pos_as_xyz
  1  'x, y, z'
loop_
 _atom_site_type_symbol
 _atom_site_label
 _atom_site_symmetry_multiplicity
 _atom_site_fract_x
 _atom_site_fract_y
 _atom_site_fract_z
 _atom_site_occupancy
  H  H0  1  0.80168565  0.69849459  0.05165782  1
  H  H1  1  0.30150541  0.19831435  0.94834218  1
  H  H2  1  0.25312151  0.77360149  0.55143072  1
  H  H3  1  0.22639851  0.74687849  0.44856928  1
  Br  Br4  1  0.49712062  0.00709170  0.76725393  1
  Br  Br5  1  0.99290830  0.50287938  0.23274607  1
