# generated using pymatgen
data_H4SBr2
_symmetry_space_group_name_H-M   'P 1'
_cell_length_a   5.88520445
_cell_length_b   5.88520445
_cell_length_c   5.91394974
_cell_angle_alpha   63.33761916
_cell_angle_beta   63.33761916
_cell_angle_gamma   81.24992366
_symmetry_Int_Tables_number   1
_chemical_formula_structural   H4SBr2
_chemical_formula_sum   'H4 S1 Br2'
_cell_volume   163.27681735
_cell_formula_units_Z   1
loop_
 _symmetry_equiv_pos_site_id
 _symmetry_equiv_pos_as_xyz
  1  'x, y, z'
loop_
 _atom_site_type_symbol
 _atom_site_label
 _atom_site_symmetry_multiplicity
 _atom_site_fract_x
 _atom_site_fract_y
 _atom_site_fract_z
 _atom_site_occupancy
  H  H0  1  0.77412828  0.77412828  0.26898910  1
  H  H1  1  0.44427573  0.44427573  0.63020459  1
  H  H2  1  0.08833871  0.82613779  0.91047256  1
  H  H3  1  0.82613779  0.08833871  0.91047256  1
  S  S4  1  0.96235095  0.96235095  0.07519874  1
  Br  Br5  1  0.67484487  0.22992369  0.60233122  1
  Br  Br6  1  0.22992369  0.67484487  0.60233122  1
