# generated using pymatgen
data_H4SeBr2
_symmetry_space_group_name_H-M   'P 1'
_cell_length_a   6.01692649
_cell_length_b   6.01692649
_cell_length_c   5.91247257
_cell_angle_alpha   63.80641337
_cell_angle_beta   63.80641337
_cell_angle_gamma   81.38903346
_symmetry_Int_Tables_number   1
_chemical_formula_structural   H4SeBr2
_chemical_formula_sum   'H4 Se1 Br2'
_cell_volume   172.07533151
_cell_formula_units_Z   1
loop_
 _symmetry_equiv_pos_site_id
 _symmetry_equiv_pos_as_xyz
  1  'x, y, z'
loop_
 _atom_site_type_symbol
 _atom_site_label
 _atom_site_symmetry_multiplicity
 _atom_site_fract_x
 _atom_site_fract_y
 _atom_site_fract_z
 _atom_site_occupancy
  H  H0  1  0.77115014  0.77115014  0.28350243  1
  H  H1  1  0.44270508  0.44270508  0.62722666  1
  H  H2  1  0.09986012  0.82230184  0.90006615  1
  H  H3  1  0.82230184  0.09986012  0.90006615  1
  Se  Se4  1  0.97166435  0.97166435  0.07838734  1
  Br  Br5  1  0.66369325  0.22862524  0.60537563  1
  Br  Br6  1  0.22862524  0.66369325  0.60537563  1
