# generated using pymatgen
data_Li2B4O7
_symmetry_space_group_name_H-M   'P 1'
_cell_length_a   8.44528476
_cell_length_b   8.44528476
_cell_length_c   8.44528476
_cell_angle_alpha   104.99424680
_cell_angle_beta   111.75502983
_cell_angle_gamma   111.75502983
_symmetry_Int_Tables_number   1
_chemical_formula_structural   Li2B4O7
_chemical_formula_sum   'Li8 B16 O28'
_cell_volume   461.58137517
_cell_formula_units_Z   4
loop_
 _symmetry_equiv_pos_site_id
 _symmetry_equiv_pos_as_xyz
  1  'x, y, z'
loop_
 _atom_site_type_symbol
 _atom_site_label
 _atom_site_symmetry_multiplicity
 _atom_site_fract_x
 _atom_site_fract_y
 _atom_site_fract_z
 _atom_site_occupancy
  Li  Li16  1  0.51580000  0.31450000  0.49910000  1.0
  Li  Li17  1  0.31540000  0.54870000  0.56450000  1.0
  Li  Li18  1  0.68460000  0.24910000  0.23330000  1.0
  Li  Li19  1  0.48420000  0.98330000  0.79870000  1.0
  Li  Li20  1  0.18460000  0.48330000  0.99910000  1.0
  Li  Li21  1  0.81540000  0.81450000  0.29870000  1.0
  Li  Li22  1  0.98420000  0.04870000  0.73330000  1.0
  Li  Li23  1  0.01580000  0.74910000  0.06450000  1.0
  B  B0  1  0.25470000  0.21780000  0.13530000  1.0
  B  B1  1  0.58250000  0.71310000  0.46780000  1.0
  B  B2  1  0.41750000  0.88530000  0.13060000  1.0
  B  B3  1  0.74530000  0.88060000  0.96310000  1.0
  B  B4  1  0.91750000  0.38060000  0.63530000  1.0
  B  B5  1  0.08250000  0.71780000  0.46310000  1.0
  B  B6  1  0.24530000  0.21310000  0.63060000  1.0
  B  B7  1  0.75470000  0.38530000  0.96780000  1.0
  B  B8  1  0.44180000  0.30572000  0.97172000  1.0
  B  B9  1  0.83400000  0.61392000  0.55572000  1.0
  B  B10  1  0.16600000  0.72172000  0.77992000  1.0
  B  B11  1  0.55820000  0.52992000  0.86392000  1.0
  B  B12  1  0.66600000  0.02992000  0.47172000  1.0
  B  B13  1  0.33400000  0.80572000  0.36392000  1.0
  B  B14  1  0.05820000  0.11392000  0.27992000  1.0
  B  B15  1  0.94180000  0.22172000  0.05572000  1.0
  O  O24  1  0.41892000  0.26651000  0.12183000  1.0
  O  O25  1  0.64468000  0.59759000  0.51651000  1.0
  O  O26  1  0.35532000  0.87183000  0.95291000  1.0
  O  O27  1  0.58108000  0.70291000  0.84759000  1.0
  O  O28  1  0.85532000  0.20291000  0.62183000  1.0
  O  O29  1  0.14468000  0.76651000  0.34759000  1.0
  O  O30  1  0.08108000  0.09759000  0.45291000  1.0
  O  O31  1  0.91892000  0.37183000  0.01651000  1.0
  O  O32  1  0.24480000  0.16153000  0.27163000  1.0
  O  O33  1  0.38990000  0.66666667  0.41153000  1.0
  O  O34  1  0.61010000  0.02163000  0.27683000  1.0
  O  O35  1  0.75520000  0.02683000  0.91673000  1.0
  O  O36  1  0.11010000  0.52683000  0.77163000  1.0
  O  O37  1  0.88990000  0.66153000  0.41673000  1.0
  O  O38  1  0.25520000  0.16673000  0.77683000  1.0
  O  O39  1  0.74480000  0.52163000  0.91153000  1.0
  O  O40  1  0.09933000  0.22531000  0.01202000  1.0
  O  O41  1  0.71329000  0.87598000  0.47531000  1.0
  O  O42  1  0.28671000  0.76202000  0.16269000  1.0
  O  O43  1  0.90067000  0.91269000  0.12598000  1.0
  O  O44  1  0.78671000  0.41269000  0.51202000  1.0
  O  O45  1  0.21329000  0.72531000  0.62598000  1.0
  O  O46  1  0.40067000  0.37598000  0.66269000  1.0
  O  O47  1  0.59933000  0.26202000  0.97531000  1.0
  O  O48  1  0.50000000  0.50032000  0.00032000  1.0
  O  O49  1  0.00000000  0.75032000  0.75032000  1.0
  O  O50  1  0.50000000  0.00032000  0.50032000  1.0
  O  O51  1  0.00000000  0.25032000  0.25032000  1.0
