# generated using pymatgen
data_K2AlGaS4
_symmetry_space_group_name_H-M   'P 1'
_cell_length_a   6.53450593
_cell_length_b   6.53450593
_cell_length_c   6.91406412
_cell_angle_alpha   58.06986094
_cell_angle_beta   58.06986094
_cell_angle_gamma   83.15230531
_symmetry_Int_Tables_number   1
_chemical_formula_structural   K2AlGaS4
_chemical_formula_sum   'K2 Al1 Ga1 S4'
_cell_volume   207.30197972
_cell_formula_units_Z   1
loop_
 _symmetry_equiv_pos_site_id
 _symmetry_equiv_pos_as_xyz
  1  'x, y, z'
loop_
 _atom_site_type_symbol
 _atom_site_label
 _atom_site_symmetry_multiplicity
 _atom_site_fract_x
 _atom_site_fract_y
 _atom_site_fract_z
 _atom_site_occupancy
  K  K0  1  0.01425528  0.98574472  0.50000000  1
  K  K1  1  0.76425975  0.23574025  -0.00000000  1
  Al  Al2  1  0.51410528  0.48589472  0.50000000  1
  Ga  Ga3  1  0.26412212  0.73587788  -0.00000000  1
  S  S4  1  0.88502110  0.61272572  0.09984688  1
  S  S5  1  0.24065367  0.45675604  0.40243621  1
  S  S6  1  0.54324396  0.75934633  0.59756379  1
  S  S7  1  0.38727428  0.11497890  0.90015312  1
