# generated using pymatgen
data_NaZnPS4
_symmetry_space_group_name_H-M   'P 1'
_cell_length_a   6.26005059
_cell_length_b   6.26005059
_cell_length_c   6.26005059
_cell_angle_alpha   120.19338610
_cell_angle_beta   120.19338610
_cell_angle_gamma   89.66537054
_symmetry_Int_Tables_number   1
_chemical_formula_structural   NaZnPS4
_chemical_formula_sum   'Na1 Zn1 P1 S4'
_cell_volume   172.95741672
_cell_formula_units_Z   1
loop_
 _symmetry_equiv_pos_site_id
 _symmetry_equiv_pos_as_xyz
  1  'x, y, z'
loop_
 _atom_site_type_symbol
 _atom_site_label
 _atom_site_symmetry_multiplicity
 _atom_site_fract_x
 _atom_site_fract_y
 _atom_site_fract_z
 _atom_site_occupancy
  Na  Na0  1  0.25000000  0.75000000  0.50000000  1
  Zn  Zn1  1  0.75000000  0.25000000  0.50000000  1
  P  P2  1  0.50000000  0.50000000  1.00000000  1
  S  S3  1  0.43578887  0.38491951  0.59433202  1
  S  S4  1  0.61508049  0.20941251  0.05086936  1
  S  S5  1  0.15854315  0.56421113  0.94913064  1
  S  S6  1  0.79058749  0.84145685  0.40566798  1
