# generated using pymatgen
data_NaAlS2
_symmetry_space_group_name_H-M   'P 1'
_cell_length_a   6.41551510
_cell_length_b   6.62047799
_cell_length_c   8.87265807
_cell_angle_alpha   90.00000000
_cell_angle_beta   90.00000000
_cell_angle_gamma   90.00000000
_symmetry_Int_Tables_number   1
_chemical_formula_structural   NaAlS2
_chemical_formula_sum   'Na4 Al4 S8'
_cell_volume   376.85529595
_cell_formula_units_Z   4
loop_
 _symmetry_equiv_pos_site_id
 _symmetry_equiv_pos_as_xyz
  1  'x, y, z'
loop_
 _atom_site_type_symbol
 _atom_site_label
 _atom_site_symmetry_multiplicity
 _atom_site_fract_x
 _atom_site_fract_y
 _atom_site_fract_z
 _atom_site_occupancy
  Na  Na0  1  0.01926183  0.06699214  0.88053615  1
  Na  Na1  1  0.51926183  0.93300786  0.11946385  1
  Na  Na2  1  0.51926183  0.43300786  0.38053615  1
  Na  Na3  1  0.01926183  0.56699214  0.61946385  1
  Al  Al4  1  0.99692030  0.06103540  0.37412154  1
  Al  Al5  1  0.49692030  0.93896460  0.62587846  1
  Al  Al6  1  0.49692030  0.43896460  0.87412154  1
  Al  Al7  1  0.99692030  0.56103540  0.12587846  1
  S  S8  1  0.14658794  0.46500486  0.90648781  1
  S  S9  1  0.64658794  0.53499514  0.09351219  1
  S  S10  1  0.64658794  0.03499514  0.40648781  1
  S  S11  1  0.14658794  0.96500486  0.59351219  1
  S  S12  1  0.58702994  0.10884980  0.83856440  1
  S  S13  1  0.08702994  0.89115020  0.16143560  1
  S  S14  1  0.08702994  0.39115020  0.33856440  1
  S  S15  1  0.58702994  0.60884980  0.66143560  1
