# generated using pymatgen
data_Zn2P2S7
_symmetry_space_group_name_H-M   'P 1'
_cell_length_a   6.08008642
_cell_length_b   6.08008642
_cell_length_c   8.38183966
_cell_angle_alpha   75.86545896
_cell_angle_beta   75.86545896
_cell_angle_gamma   55.99042661
_symmetry_Int_Tables_number   1
_chemical_formula_structural   Zn2P2S7
_chemical_formula_sum   'Zn2 P2 S7'
_cell_volume   246.83450267
_cell_formula_units_Z   1
loop_
 _symmetry_equiv_pos_site_id
 _symmetry_equiv_pos_as_xyz
  1  'x, y, z'
loop_
 _atom_site_type_symbol
 _atom_site_label
 _atom_site_symmetry_multiplicity
 _atom_site_fract_x
 _atom_site_fract_y
 _atom_site_fract_z
 _atom_site_occupancy
  Zn  Zn0  1  0.23115799  0.18036067  0.85218418  1
  Zn  Zn1  1  0.81963933  0.76884201  0.14781582  1
  P  P2  1  0.07352890  0.07933507  0.28992437  1
  P  P3  1  0.92066493  0.92647110  0.71007563  1
  S  S4  1  0.84256773  0.26361469  0.77466541  1
  S  S5  1  0.73638531  0.15743227  0.22533459  1
  S  S6  1  0.03409833  0.40404038  0.34748235  1
  S  S7  1  0.59595962  0.96590167  0.65251765  1
  S  S8  1  0.22484536  0.77515464  0.50000000  1
  S  S9  1  0.38858650  0.87983396  0.10462004  1
  S  S10  1  0.12016604  0.61141350  0.89537996  1
