# generated using pymatgen
data_PN2F5
_symmetry_space_group_name_H-M   'P 1'
_cell_length_a   4.93646049
_cell_length_b   5.69397388
_cell_length_c   6.00515510
_cell_angle_alpha   76.67927718
_cell_angle_beta   70.04647053
_cell_angle_gamma   73.60727524
_symmetry_Int_Tables_number   1
_chemical_formula_structural   PN2F5
_chemical_formula_sum   'P1 N2 F5'
_cell_volume   150.51882641
_cell_formula_units_Z   1
loop_
 _symmetry_equiv_pos_site_id
 _symmetry_equiv_pos_as_xyz
  1  'x, y, z'
loop_
 _atom_site_type_symbol
 _atom_site_label
 _atom_site_symmetry_multiplicity
 _atom_site_fract_x
 _atom_site_fract_y
 _atom_site_fract_z
 _atom_site_occupancy
  P  P0  1  0.05247729  0.99854671  0.00471334  1
  N  N1  1  0.50094544  0.48723399  0.56146481  1
  N  N2  1  0.40447856  0.51818775  0.41170856  1
  F  F3  1  0.90171672  0.98698524  0.28821477  1
  F  F4  1  0.97969326  0.74385732  0.01906013  1
  F  F5  1  0.83699517  0.25485972  0.96509430  1
  F  F6  1  0.19054149  0.01025211  0.71982030  1
  F  F7  1  0.35615009  0.00007516  0.02992279  1
