# generated using pymatgen
data_LiBe2BO4
_symmetry_space_group_name_H-M   'P 1'
_cell_length_a   4.55185918
_cell_length_b   4.55185918
_cell_length_c   4.55185918
_cell_angle_alpha   127.84499068
_cell_angle_beta   127.84499068
_cell_angle_gamma   76.87627185
_symmetry_Int_Tables_number   1
_chemical_formula_structural   LiBe2BO4
_chemical_formula_sum   'Li1 Be2 B1 O4'
_cell_volume   57.09948596
_cell_formula_units_Z   1
loop_
 _symmetry_equiv_pos_site_id
 _symmetry_equiv_pos_as_xyz
  1  'x, y, z'
loop_
 _atom_site_type_symbol
 _atom_site_label
 _atom_site_symmetry_multiplicity
 _atom_site_fract_x
 _atom_site_fract_y
 _atom_site_fract_z
 _atom_site_occupancy
  Li  Li0  1  0.50000000  0.50000000  0.00000000  1
  Be  Be1  1  0.75000000  0.25000000  0.50000000  1
  Be  Be2  1  0.25000000  0.75000000  0.50000000  1
  B  B3  1  0.00000000  0.00000000  0.00000000  1
  O  O4  1  0.08323381  0.08323381  0.42055363  1
  O  O5  1  0.33731982  0.91676619  -0.00000000  1
  O  O6  1  0.91676619  0.33731982  1.00000000  1
  O  O7  1  0.66268018  0.66268018  0.57944637  1
