# generated using pymatgen
data_N2
_symmetry_space_group_name_H-M   'P 1'
_cell_length_a   6.84311871
_cell_length_b   3.96333891
_cell_length_c   4.04502916
_cell_angle_alpha   61.64105261
_cell_angle_beta   90.00000000
_cell_angle_gamma   90.00000000
_symmetry_Int_Tables_number   1
_chemical_formula_structural   N2
_chemical_formula_sum   N4
_cell_volume   96.54154635
_cell_formula_units_Z   2
loop_
 _symmetry_equiv_pos_site_id
 _symmetry_equiv_pos_as_xyz
  1  'x, y, z'
loop_
 _atom_site_type_symbol
 _atom_site_label
 _atom_site_symmetry_multiplicity
 _atom_site_fract_x
 _atom_site_fract_y
 _atom_site_fract_z
 _atom_site_occupancy
  N  N0  1  0.61826979  0.38878991  0.73326592  1
  N  N1  1  0.11826979  0.61121009  0.26673408  1
  N  N2  1  0.01465021  0.74481629  0.02635522  1
  N  N3  1  0.51465021  0.25518371  0.97364478  1
