# generated using pymatgen
data_NaSiBO4
_symmetry_space_group_name_H-M   'P 1'
_cell_length_a   4.80759154
_cell_length_b   4.80759154
_cell_length_c   4.80759154
_cell_angle_alpha   120.76598708
_cell_angle_beta   120.76598708
_cell_angle_gamma   88.67831394
_symmetry_Int_Tables_number   1
_chemical_formula_structural   NaSiBO4
_chemical_formula_sum   'Na1 Si1 B1 O4'
_cell_volume   77.63987063
_cell_formula_units_Z   1
loop_
 _symmetry_equiv_pos_site_id
 _symmetry_equiv_pos_as_xyz
  1  'x, y, z'
loop_
 _atom_site_type_symbol
 _atom_site_label
 _atom_site_symmetry_multiplicity
 _atom_site_fract_x
 _atom_site_fract_y
 _atom_site_fract_z
 _atom_site_occupancy
  Na  Na0  1  0.50000000  0.50000000  0.00000000  1
  Si  Si1  1  0.00000000  0.00000000  0.00000000  1
  B  B2  1  0.25000000  0.75000000  0.50000000  1
  O  O3  1  0.13522096  0.98170884  0.37816164  1
  O  O4  1  0.60354720  0.75705932  0.62183836  1
  O  O5  1  0.01829116  0.39645280  0.15351212  1
  O  O6  1  0.24294068  0.86477904  0.84648788  1
