# generated using pymatgen
data_Li3AlGeO5
_symmetry_space_group_name_H-M   'P 1'
_cell_length_a   5.39530000
_cell_length_b   15.82210000
_cell_length_c   4.87110000
_cell_angle_alpha   90.00000000
_cell_angle_beta   90.00000000
_cell_angle_gamma   90.00000000
_symmetry_Int_Tables_number   1
_chemical_formula_structural   Li3AlGeO5
_chemical_formula_sum   'Li12 Al4 Ge4 O20'
_cell_volume   415.82133523
_cell_formula_units_Z   4
loop_
 _symmetry_equiv_pos_site_id
 _symmetry_equiv_pos_as_xyz
  1  'x, y, z'
loop_
 _atom_site_type_symbol
 _atom_site_label
 _atom_site_symmetry_multiplicity
 _atom_site_fract_x
 _atom_site_fract_y
 _atom_site_fract_z
 _atom_site_occupancy
  Li  Li0  1  0.31000000  0.40700000  0.51000000  1.0
  Li  Li1  1  0.69000000  0.59300000  0.01000000  1.0
  Li  Li2  1  0.19000000  0.90700000  0.01000000  1.0
  Li  Li3  1  0.81000000  0.09300000  0.51000000  1.0
  Li  Li4  1  0.86000000  0.51000000  0.46000000  1.0
  Li  Li5  1  0.14000000  0.49000000  0.96000000  1.0
  Li  Li6  1  0.64000000  0.01000000  0.96000000  1.0
  Li  Li7  1  0.36000000  0.99000000  0.46000000  1.0
  Li  Li8  1  0.84000000  0.69700000  0.49000000  1.0
  Li  Li9  1  0.16000000  0.30300000  0.99000000  1.0
  Li  Li10  1  0.66000000  0.19700000  0.99000000  1.0
  Li  Li11  1  0.34000000  0.80300000  0.49000000  1.0
  Al  Al12  1  0.32300000  0.20200000  0.49000000  1.0
  Al  Al13  1  0.67700000  0.79800000  0.99000000  1.0
  Al  Al14  1  0.17700000  0.70200000  0.99000000  1.0
  Al  Al15  1  0.82300000  0.29800000  0.49000000  1.0
  Ge  Ge16  1  0.16100000  0.09830000  0.00000000  1.0
  Ge  Ge17  1  0.83900000  0.90170000  0.50000000  1.0
  Ge  Ge18  1  0.33900000  0.59830000  0.50000000  1.0
  Ge  Ge19  1  0.66100000  0.40170000  0.00000000  1.0
  O  O20  1  0.15100000  0.28800000  0.58000000  1.0
  O  O21  1  0.80400000  0.88800000  0.13200000  1.0
  O  O22  1  0.30400000  0.61200000  0.13200000  1.0
  O  O23  1  0.19600000  0.11200000  0.63200000  1.0
  O  O24  1  0.32200000  0.00900000  0.10000000  1.0
  O  O25  1  0.67800000  0.99100000  0.60000000  1.0
  O  O26  1  0.17800000  0.50900000  0.60000000  1.0
  O  O27  1  0.82200000  0.49100000  0.10000000  1.0
  O  O28  1  0.86000000  0.10600000  0.09500000  1.0
  O  O29  1  0.14000000  0.89400000  0.59500000  1.0
  O  O30  1  0.64000000  0.60600000  0.59500000  1.0
  O  O31  1  0.36000000  0.39400000  0.09500000  1.0
  O  O32  1  0.30000000  0.19200000  0.13000000  1.0
  O  O33  1  0.70000000  0.80800000  0.63000000  1.0
  O  O34  1  0.20000000  0.69200000  0.63000000  1.0
  O  O35  1  0.80000000  0.30800000  0.13000000  1.0
  O  O36  1  0.34900000  0.78800000  0.08000000  1.0
  O  O37  1  0.65100000  0.21200000  0.58000000  1.0
  O  O38  1  0.69600000  0.38800000  0.63200000  1.0
  O  O39  1  0.84900000  0.71200000  0.08000000  1.0
