# generated using pymatgen
data_Ga4PbS7
_symmetry_space_group_name_H-M   'P 1'
_cell_length_a   6.04152086
_cell_length_b   6.41548508
_cell_length_c   15.14397525
_cell_angle_alpha   90.00000000
_cell_angle_beta   90.00000000
_cell_angle_gamma   90.00000000
_symmetry_Int_Tables_number   1
_chemical_formula_structural   Ga4PbS7
_chemical_formula_sum   'Ga8 Pb2 S14'
_cell_volume   586.96968209
_cell_formula_units_Z   2
loop_
 _symmetry_equiv_pos_site_id
 _symmetry_equiv_pos_as_xyz
  1  'x, y, z'
loop_
 _atom_site_type_symbol
 _atom_site_label
 _atom_site_symmetry_multiplicity
 _atom_site_fract_x
 _atom_site_fract_y
 _atom_site_fract_z
 _atom_site_occupancy
  Ga  Ga0  1  0.58505821  0.65806194  0.87730733  1
  Ga  Ga1  1  0.07500113  0.82050071  0.25452473  1
  Ga  Ga2  1  0.57500113  0.17949929  0.24547527  1
  Ga  Ga3  1  0.08505821  0.34193806  0.62269267  1
  Ga  Ga4  1  0.08505821  0.34193806  0.37730733  1
  Ga  Ga5  1  0.58505821  0.65806194  0.12269267  1
  Ga  Ga6  1  0.07500113  0.82050071  0.74547527  1
  Ga  Ga7  1  0.57500113  0.17949929  0.75452473  1
  Pb  Pb8  1  0.53610015  0.00012521  0.50000000  1
  Pb  Pb9  1  0.03610015  0.99987479  0.00000000  1
  S  S10  1  0.96987786  0.67993933  0.12160791  1
  S  S11  1  0.46987786  0.32006067  0.37839209  1
  S  S12  1  0.46855661  0.32595649  0.88142490  1
  S  S13  1  0.96855661  0.67404351  0.61857510  1
  S  S14  1  0.96855661  0.67404351  0.38142490  1
  S  S15  1  0.46855661  0.32595649  0.11857510  1
  S  S16  1  0.46505155  0.83004784  0.74938761  1
  S  S17  1  0.96505155  0.16995216  0.75061239  1
  S  S18  1  0.96505155  0.16995216  0.24938761  1
  S  S19  1  0.46505155  0.83004784  0.25061239  1
  S  S20  1  0.49164013  0.85364313  0.00000000  1
  S  S21  1  0.99164013  0.14635687  0.50000000  1
  S  S22  1  0.96987786  0.67993933  0.87839209  1
  S  S23  1  0.46987786  0.32006067  0.62160791  1
