# generated using pymatgen
data_BePH6CCl3
_symmetry_space_group_name_H-M   'P 1'
_cell_length_a   5.97929790
_cell_length_b   6.00215880
_cell_length_c   6.00534866
_cell_angle_alpha   76.58853170
_cell_angle_beta   76.71510862
_cell_angle_gamma   76.50055419
_symmetry_Int_Tables_number   1
_chemical_formula_structural   BePH6CCl3
_chemical_formula_sum   'Be1 P1 H6 C1 Cl3'
_cell_volume   200.30867841
_cell_formula_units_Z   1
loop_
 _symmetry_equiv_pos_site_id
 _symmetry_equiv_pos_as_xyz
  1  'x, y, z'
loop_
 _atom_site_type_symbol
 _atom_site_label
 _atom_site_symmetry_multiplicity
 _atom_site_fract_x
 _atom_site_fract_y
 _atom_site_fract_z
 _atom_site_occupancy
  Be  Be0  1  0.36444193  0.35811178  0.35986692  1
  P  P1  1  0.95075376  0.93685459  0.93873077  1
  H  H2  1  0.22206526  0.95171102  0.16462453  1
  H  H3  1  0.95371878  0.16140708  0.21431014  1
  H  H4  1  0.16791927  0.21578665  0.95190903  1
  H  H5  1  0.11017090  0.83789398  0.75959408  1
  H  H6  1  0.76920351  0.09056701  0.83674049  1
  H  H7  1  0.85186249  0.75538280  0.09383814  1
  C  C8  1  0.08827193  0.08188700  0.08268012  1
  Cl  Cl9  1  0.50007992  0.51261558  0.05762784  1
  Cl  Cl10  1  0.06141469  0.49443728  0.51482071  1
  Cl  Cl11  1  0.52009757  0.05506223  0.49525724  1
