# generated using pymatgen
data_BH2Br2N
_symmetry_space_group_name_H-M   'P 1'
_cell_length_a   7.88929833
_cell_length_b   7.88929833
_cell_length_c   4.68408078
_cell_angle_alpha   90.00000000
_cell_angle_beta   90.00000000
_cell_angle_gamma   124.42685606
_symmetry_Int_Tables_number   1
_chemical_formula_structural   BH2Br2N
_chemical_formula_sum   'B2 H4 Br4 N2'
_cell_volume   240.47801137
_cell_formula_units_Z   2
loop_
 _symmetry_equiv_pos_site_id
 _symmetry_equiv_pos_as_xyz
  1  'x, y, z'
loop_
 _atom_site_type_symbol
 _atom_site_label
 _atom_site_symmetry_multiplicity
 _atom_site_fract_x
 _atom_site_fract_y
 _atom_site_fract_z
 _atom_site_occupancy
  B  B0  1  0.10612886  0.10612886  0.66514702  1
  B  B1  1  0.89387114  0.89387114  0.16514702  1
  H  H2  1  0.09541565  0.21217770  0.24787115  1
  H  H3  1  0.21217770  0.09541565  0.24787115  1
  H  H4  1  0.78782230  0.90458435  0.74787115  1
  H  H5  1  0.90458435  0.78782230  0.74787115  1
  Br  Br6  1  0.12379057  0.36576974  0.77013999  1
  Br  Br7  1  0.36576974  0.12379057  0.77013999  1
  Br  Br8  1  0.87620943  0.63423026  0.27013999  1
  Br  Br9  1  0.63423026  0.87620943  0.27013999  1
  N  N10  1  0.08194972  0.08194972  0.32558271  1
  N  N11  1  0.91805028  0.91805028  0.82558271  1
