# generated using pymatgen
data_SiH3Br
_symmetry_space_group_name_H-M   'P 1'
_cell_length_a   4.52324294
_cell_length_b   5.75440646
_cell_length_c   7.17966528
_cell_angle_alpha   90.19830143
_cell_angle_beta   90.00788259
_cell_angle_gamma   90.00784436
_symmetry_Int_Tables_number   1
_chemical_formula_structural   SiH3Br
_chemical_formula_sum   'Si2 H6 Br2'
_cell_volume   186.87535779
_cell_formula_units_Z   2
loop_
 _symmetry_equiv_pos_site_id
 _symmetry_equiv_pos_as_xyz
  1  'x, y, z'
loop_
 _atom_site_type_symbol
 _atom_site_label
 _atom_site_symmetry_multiplicity
 _atom_site_fract_x
 _atom_site_fract_y
 _atom_site_fract_z
 _atom_site_occupancy
  Si  Si0  1  0.73409145  0.25055855  0.70061500  1
  Si  Si1  1  0.23443684  0.39665905  0.20095999  1
  H  H2  1  0.56171107  0.42018976  0.20120269  1
  H  H3  1  0.60261547  0.14815978  0.87162145  1
  H  H4  1  0.10256753  0.49962674  0.37216386  1
  H  H5  1  0.06140960  0.22726355  0.70047644  1
  H  H6  1  0.10296018  0.49917510  0.03000818  1
  H  H7  1  0.60228614  0.14729397  0.52944294  1
  Br  Br8  1  0.62055242  0.62995645  0.70118462  1
  Br  Br9  1  0.12112309  0.01723190  0.20003424  1
