# generated using pymatgen
data_BHO
_symmetry_space_group_name_H-M   'P 1'
_cell_length_a   4.19667706
_cell_length_b   4.19667706
_cell_length_c   4.00357547
_cell_angle_alpha   79.04580911
_cell_angle_beta   79.04580911
_cell_angle_gamma   32.83387047
_symmetry_Int_Tables_number   1
_chemical_formula_structural   BHO
_chemical_formula_sum   'B1 H1 O1'
_cell_volume   37.47393015
_cell_formula_units_Z   1
loop_
 _symmetry_equiv_pos_site_id
 _symmetry_equiv_pos_as_xyz
  1  'x, y, z'
loop_
 _atom_site_type_symbol
 _atom_site_label
 _atom_site_symmetry_multiplicity
 _atom_site_fract_x
 _atom_site_fract_y
 _atom_site_fract_z
 _atom_site_occupancy
  B  B0  1  0.76186565  0.76186565  0.26229198  1
  H  H1  1  0.64614025  0.64614025  0.50213032  1
  O  O2  1  0.32992411  0.32992411  0.12138871  1
