# generated using pymatgen
data_Ca(AlS2)2
_symmetry_space_group_name_H-M   'P 1'
_cell_length_a   5.92764033
_cell_length_b   5.92764033
_cell_length_c   5.92764033
_cell_angle_alpha   104.41166143
_cell_angle_beta   104.41166143
_cell_angle_gamma   120.14737818
_symmetry_Int_Tables_number   1
_chemical_formula_structural   Ca(AlS2)2
_chemical_formula_sum   'Ca1 Al2 S4'
_cell_volume   156.09245786
_cell_formula_units_Z   1
loop_
 _symmetry_equiv_pos_site_id
 _symmetry_equiv_pos_as_xyz
  1  'x, y, z'
loop_
 _atom_site_type_symbol
 _atom_site_label
 _atom_site_symmetry_multiplicity
 _atom_site_fract_x
 _atom_site_fract_y
 _atom_site_fract_z
 _atom_site_occupancy
  Ca  Ca0  1  0.00000000  0.00000000  0.00000000  1
  Al  Al1  1  -0.00000000  0.50000000  0.50000000  1
  Al  Al2  1  0.50000000  -0.00000000  0.50000000  1
  S  S3  1  0.08231703  0.91768297  0.50000000  1
  S  S4  1  0.58231703  0.08231703  0.16463407  1
  S  S5  1  0.91768297  0.41768297  0.83536593  1
  S  S6  1  0.41768297  0.58231703  0.50000000  1
