# generated using pymatgen
data_Li2BeSiS4
_symmetry_space_group_name_H-M   'P 1'
_cell_length_a   5.52271179
_cell_length_b   5.52274129
_cell_length_c   6.14212577
_cell_angle_alpha   116.71384676
_cell_angle_beta   116.71480898
_cell_angle_gamma   90.00128181
_symmetry_Int_Tables_number   1
_chemical_formula_structural   Li2BeSiS4
_chemical_formula_sum   'Li2 Be1 Si1 S4'
_cell_volume   144.60430527
_cell_formula_units_Z   1
loop_
 _symmetry_equiv_pos_site_id
 _symmetry_equiv_pos_as_xyz
  1  'x, y, z'
loop_
 _atom_site_type_symbol
 _atom_site_label
 _atom_site_symmetry_multiplicity
 _atom_site_fract_x
 _atom_site_fract_y
 _atom_site_fract_z
 _atom_site_occupancy
  Li  Li0  1  0.51420980  0.01406308  0.02828864  1
  Li  Li1  1  0.76422191  0.76404336  0.52825743  1
  Be  Be2  1  0.01398230  0.51426610  0.02814484  1
  Si  Si3  1  0.26409264  0.26409491  0.52823029  1
  S  S4  1  0.33856820  0.88703999  0.27246337  1
  S  S5  1  0.14283081  0.18971061  0.78408733  1
  S  S6  1  0.64113338  0.59435499  0.78400243  1
  S  S7  1  0.93390797  0.38537496  0.27242367  1
