# generated using pymatgen
data_RbBe2BO3F2
_symmetry_space_group_name_H-M   'P 1'
_cell_length_a   4.44100000
_cell_length_b   4.44228281
_cell_length_c   7.08700000
_cell_angle_alpha   108.25255782
_cell_angle_beta   90.00000000
_cell_angle_gamma   119.99044797
_symmetry_Int_Tables_number   1
_chemical_formula_structural   RbBe2BO3F2
_chemical_formula_sum   'Rb1 Be2 B1 O3 F2'
_cell_volume   112.89861310
_cell_formula_units_Z   1
loop_
 _symmetry_equiv_pos_site_id
 _symmetry_equiv_pos_as_xyz
  1  'x, y, z'
loop_
 _atom_site_type_symbol
 _atom_site_label
 _atom_site_symmetry_multiplicity
 _atom_site_fract_x
 _atom_site_fract_y
 _atom_site_fract_z
 _atom_site_occupancy
  Rb  Rb8  1  0.00000000  0.00000000  0.00000000  1.0
  Be  Be1  1  0.20400000  0.38800000  0.58200000  1.0
  Be  Be2  1  0.81600000  0.61200000  0.41800000  1.0
  B  B0  1  0.48800000  0.00000000  0.50000000  1.0
  O  O5  1  0.81800000  0.00000000  0.50000000  1.0
  O  O6  1  0.51200000  0.31000000  0.49700000  1.0
  O  O7  1  0.20200000  0.69000000  0.50300000  1.0
  F  F3  1  0.27600000  0.54800000  0.81800000  1.0
  F  F4  1  0.72800000  0.45200000  0.18200000  1.0
