# generated using pymatgen
data_KTiPO5
_symmetry_space_group_name_H-M   'P 1'
_cell_length_a   12.81400000
_cell_length_b   6.40400000
_cell_length_c   10.61600000
_cell_angle_alpha   90.00000000
_cell_angle_beta   90.00000000
_cell_angle_gamma   90.00000000
_symmetry_Int_Tables_number   1
_chemical_formula_structural   KTiPO5
_chemical_formula_sum   'K8 Ti8 P8 O40'
_cell_volume   871.15804730
_cell_formula_units_Z   8
loop_
 _symmetry_equiv_pos_site_id
 _symmetry_equiv_pos_as_xyz
  1  'x, y, z'
loop_
 _atom_site_type_symbol
 _atom_site_label
 _atom_site_symmetry_multiplicity
 _atom_site_fract_x
 _atom_site_fract_y
 _atom_site_fract_z
 _atom_site_occupancy
  K  K0  1  0.60528000  0.19890000  0.56690000  1.0
  K  K1  1  0.37801000  0.21960000  0.81201000  1.0
  K  K2  1  0.12199000  0.71960000  0.31201000  1.0
  K  K3  1  0.87801000  0.28040000  0.81201000  1.0
  K  K4  1  0.62199000  0.78040000  0.31201000  1.0
  K  K5  1  0.89472000  0.69890000  0.06690000  1.0
  K  K6  1  0.10528000  0.30110000  0.56690000  1.0
  K  K7  1  0.39472000  0.80110000  0.06690000  1.0
  Ti  Ti8  1  0.74670000  0.76915000  0.75145000  1.0
  Ti  Ti9  1  0.25330000  0.23085000  0.25145000  1.0
  Ti  Ti10  1  0.24670000  0.73085000  0.75145000  1.0
  Ti  Ti11  1  0.75330000  0.26915000  0.25145000  1.0
  Ti  Ti12  1  0.87291000  0.00011000  0.50000000  1.0
  Ti  Ti13  1  0.12709000  0.99989000  0.00000000  1.0
  Ti  Ti14  1  0.37291000  0.49989000  0.50000000  1.0
  Ti  Ti15  1  0.62709000  0.50011000  0.00000000  1.0
  P  P16  1  0.99800000  0.83639000  0.76078000  1.0
  P  P17  1  0.50200000  0.33639000  0.26078000  1.0
  P  P18  1  0.49800000  0.66361000  0.76078000  1.0
  P  P19  1  0.00200000  0.16361000  0.26078000  1.0
  P  P20  1  0.81920000  0.50197000  0.51310000  1.0
  P  P21  1  0.18080000  0.49803000  0.01310000  1.0
  P  P22  1  0.31920000  0.99803000  0.51310000  1.0
  P  P23  1  0.68080000  0.00197000  0.01310000  1.0
  O  O24  1  0.75300000  0.96050000  0.89950000  1.0
  O  O25  1  0.24700000  0.03950000  0.39950000  1.0
  O  O26  1  0.25300000  0.53950000  0.89950000  1.0
  O  O27  1  0.74700000  0.46050000  0.39950000  1.0
  O  O28  1  0.75260000  0.03960000  0.12850000  1.0
  O  O29  1  0.24740000  0.96040000  0.62850000  1.0
  O  O30  1  0.25260000  0.46040000  0.12850000  1.0
  O  O31  1  0.74740000  0.53960000  0.62850000  1.0
  O  O32  1  0.61110000  0.19180000  0.98780000  1.0
  O  O33  1  0.38890000  0.80820000  0.48780000  1.0
  O  O34  1  0.11110000  0.30820000  0.98780000  1.0
  O  O35  1  0.88890000  0.69180000  0.48780000  1.0
  O  O36  1  0.61200000  0.81050000  0.04210000  1.0
  O  O37  1  0.38800000  0.18950000  0.54210000  1.0
  O  O38  1  0.11200000  0.68950000  0.04210000  1.0
  O  O39  1  0.09370000  0.69250000  0.74220000  1.0
  O  O40  1  0.88800000  0.31050000  0.54210000  1.0
  O  O41  1  0.27620000  0.45950000  0.39070000  1.0
  O  O42  1  0.22380000  0.95950000  0.89070000  1.0
  O  O43  1  0.77620000  0.04050000  0.39070000  1.0
  O  O44  1  0.72470000  0.46670000  0.14470000  1.0
  O  O45  1  0.27530000  0.53330000  0.64470000  1.0
  O  O46  1  0.22470000  0.03330000  0.14470000  1.0
  O  O47  1  0.77530000  0.96670000  0.64470000  1.0
  O  O48  1  0.51380000  0.48650000  0.15040000  1.0
  O  O49  1  0.48620000  0.51350000  0.65040000  1.0
  O  O50  1  0.01380000  0.01350000  0.15040000  1.0
  O  O51  1  0.98620000  0.98650000  0.65040000  1.0
  O  O52  1  0.49000000  0.46500000  0.38360000  1.0
  O  O53  1  0.51000000  0.53500000  0.88360000  1.0
  O  O54  1  0.99000000  0.03500000  0.38360000  1.0
  O  O55  1  0.01000000  0.96500000  0.88360000  1.0
  O  O56  1  0.60010000  0.19890000  0.28000000  1.0
  O  O57  1  0.39990000  0.80110000  0.78000000  1.0
  O  O58  1  0.10010000  0.30110000  0.28000000  1.0
  O  O59  1  0.89990000  0.69890000  0.78000000  1.0
  O  O60  1  0.40630000  0.19250000  0.24220000  1.0
  O  O61  1  0.59370000  0.80750000  0.74220000  1.0
  O  O62  1  0.90630000  0.30750000  0.24220000  1.0
  O  O63  1  0.72380000  0.54050000  0.89070000  1.0
