# generated using pymatgen
data_SBr
_symmetry_space_group_name_H-M   'P 1'
_cell_length_a   4.82654767
_cell_length_b   4.89765151
_cell_length_c   7.55034006
_cell_angle_alpha   98.33658015
_cell_angle_beta   102.27278913
_cell_angle_gamma   112.73867362
_symmetry_Int_Tables_number   1
_chemical_formula_structural   SBr
_chemical_formula_sum   'S2 Br2'
_cell_volume   155.65353224
_cell_formula_units_Z   2
loop_
 _symmetry_equiv_pos_site_id
 _symmetry_equiv_pos_as_xyz
  1  'x, y, z'
loop_
 _atom_site_type_symbol
 _atom_site_label
 _atom_site_symmetry_multiplicity
 _atom_site_fract_x
 _atom_site_fract_y
 _atom_site_fract_z
 _atom_site_occupancy
  S  S0  1  0.93090055  0.11145307  0.18613437  1
  S  S1  1  0.01097912  0.85414110  0.00445492  1
  Br  Br2  1  0.55748030  0.52386680  0.77376214  1
  Br  Br3  1  0.79811003  0.88041903  0.41773858  1
