# generated using pymatgen
data_Zn2Si2AsP3
_symmetry_space_group_name_H-M   'P 1'
_cell_length_a   6.57916757
_cell_length_b   6.57916757
_cell_length_c   5.49029536
_cell_angle_alpha   65.62988381
_cell_angle_beta   65.62988381
_cell_angle_gamma   49.18500921
_symmetry_Int_Tables_number   1
_chemical_formula_structural   Zn2Si2AsP3
_chemical_formula_sum   'Zn2 Si2 As1 P3'
_cell_volume   160.27380229
_cell_formula_units_Z   1
loop_
 _symmetry_equiv_pos_site_id
 _symmetry_equiv_pos_as_xyz
  1  'x, y, z'
loop_
 _atom_site_type_symbol
 _atom_site_label
 _atom_site_symmetry_multiplicity
 _atom_site_fract_x
 _atom_site_fract_y
 _atom_site_fract_z
 _atom_site_occupancy
  Zn  Zn0  1  0.26011200  0.99546700  0.12914600  1
  Zn  Zn1  1  0.00453300  0.73988800  0.87085400  1
  Si  Si2  1  0.74589800  0.50955300  0.61514800  1
  Si  Si3  1  0.49044700  0.25410200  0.38485200  1
  As  As4  1  0.86023200  0.13976800  0.00000000  1
  P  P5  1  0.39071100  0.60928900  0.50000000  1
  P  P6  1  0.12412500  0.37605800  0.26818700  1
  P  P7  1  0.62394200  0.87587500  0.73181300  1
