# generated using pymatgen
data_BeZn3S4
_symmetry_space_group_name_H-M   'P 1'
_cell_length_a   12.48649109
_cell_length_b   12.48649109
_cell_length_c   12.48649109
_cell_angle_alpha   17.28014876
_cell_angle_beta   17.28014876
_cell_angle_gamma   17.28014876
_symmetry_Int_Tables_number   1
_chemical_formula_structural   BeZn3S4
_chemical_formula_sum   'Be1 Zn3 S4'
_cell_volume   149.88999508
_cell_formula_units_Z   1
loop_
 _symmetry_equiv_pos_site_id
 _symmetry_equiv_pos_as_xyz
  1  'x, y, z'
loop_
 _atom_site_type_symbol
 _atom_site_label
 _atom_site_symmetry_multiplicity
 _atom_site_fract_x
 _atom_site_fract_y
 _atom_site_fract_z
 _atom_site_occupancy
  Be  Be0  1  0.74939600  0.74939600  0.74939600  1
  Zn  Zn1  1  0.00289767  0.00289767  0.00289767  1
  Zn  Zn2  1  0.24983500  0.24983500  0.24983500  1
  Zn  Zn3  1  0.49657200  0.49657200  0.49657200  1
  S  S4  1  0.93948867  0.93948867  0.93948867  1
  S  S5  1  0.18640400  0.18640400  0.18640400  1
  S  S6  1  0.43284767  0.43284767  0.43284767  1
  S  S7  1  0.69255600  0.69255600  0.69255600  1
