# generated using pymatgen
data_LiCdPSe4
_symmetry_space_group_name_H-M   'P 1'
_cell_length_a   6.29896044
_cell_length_b   6.29946774
_cell_length_c   6.65127438
_cell_angle_alpha   118.26091515
_cell_angle_beta   118.25512215
_cell_angle_gamma   89.99108006
_symmetry_Int_Tables_number   1
_chemical_formula_structural   LiCdPSe4
_chemical_formula_sum   'Li1 Cd1 P1 Se4'
_cell_volume   196.04598377
_cell_formula_units_Z   1
loop_
 _symmetry_equiv_pos_site_id
 _symmetry_equiv_pos_as_xyz
  1  'x, y, z'
loop_
 _atom_site_type_symbol
 _atom_site_label
 _atom_site_symmetry_multiplicity
 _atom_site_fract_x
 _atom_site_fract_y
 _atom_site_fract_z
 _atom_site_occupancy
  Li  Li0  1  0.50002561  0.49985522  0.99988105  1
  Cd  Cd1  1  0.99994356  0.00005375  0.00002989  1
  P  P2  1  0.25000043  0.75002505  0.50000529  1
  Se  Se3  1  0.36512334  0.85096065  0.27857895  1
  Se  Se4  1  0.14893633  0.08651437  0.72130442  1
  Se  Se5  1  0.57237951  0.63485119  0.72128860  1
  Se  Se6  1  0.91360922  0.42777577  0.27890880  1
