# generated using pymatgen
data_H3SeCl
_symmetry_space_group_name_H-M   'P 1'
_cell_length_a   4.59478852
_cell_length_b   4.59478852
_cell_length_c   4.59478852
_cell_angle_alpha   71.11950692
_cell_angle_beta   71.11950692
_cell_angle_gamma   71.11950692
_symmetry_Int_Tables_number   1
_chemical_formula_structural   H3SeCl
_chemical_formula_sum   'H3 Se1 Cl1'
_cell_volume   84.21222243
_cell_formula_units_Z   1
loop_
 _symmetry_equiv_pos_site_id
 _symmetry_equiv_pos_as_xyz
  1  'x, y, z'
loop_
 _atom_site_type_symbol
 _atom_site_label
 _atom_site_symmetry_multiplicity
 _atom_site_fract_x
 _atom_site_fract_y
 _atom_site_fract_z
 _atom_site_occupancy
  H  H0  1  0.25945152  0.25945152  0.83760004  1
  H  H1  1  0.25945152  0.83760004  0.25945152  1
  H  H2  1  0.83760004  0.25945152  0.25945152  1
  Se  Se3  1  0.03696252  0.03696252  0.03696252  1
  Cl  Cl4  1  0.54953438  0.54953438  0.54953438  1
