# generated using pymatgen
data_HBr
_symmetry_space_group_name_H-M   'P 1'
_cell_length_a   5.70053613
_cell_length_b   4.62712553
_cell_length_c   5.44695253
_cell_angle_alpha   54.26645864
_cell_angle_beta   90.00000000
_cell_angle_gamma   90.00000000
_symmetry_Int_Tables_number   1
_chemical_formula_structural   HBr
_chemical_formula_sum   'H2 Br2'
_cell_volume   116.62683046
_cell_formula_units_Z   2
loop_
 _symmetry_equiv_pos_site_id
 _symmetry_equiv_pos_as_xyz
  1  'x, y, z'
loop_
 _atom_site_type_symbol
 _atom_site_label
 _atom_site_symmetry_multiplicity
 _atom_site_fract_x
 _atom_site_fract_y
 _atom_site_fract_z
 _atom_site_occupancy
  H  H0  1  0.55176280  0.71529699  0.97563198  1
  H  H1  1  0.44823720  0.71529699  0.47563198  1
  Br  Br2  1  0.73137281  0.71551301  0.16896802  1
  Br  Br3  1  0.26862719  0.71551301  0.66896802  1
