# generated using pymatgen
data_H3Br
_symmetry_space_group_name_H-M   'P 1'
_cell_length_a   4.74613947
_cell_length_b   4.26399348
_cell_length_c   4.32107543
_cell_angle_alpha   87.42560980
_cell_angle_beta   90.00000000
_cell_angle_gamma   90.00000000
_symmetry_Int_Tables_number   1
_chemical_formula_structural   H3Br
_chemical_formula_sum   'H3 Br1'
_cell_volume   87.35954052
_cell_formula_units_Z   1
loop_
 _symmetry_equiv_pos_site_id
 _symmetry_equiv_pos_as_xyz
  1  'x, y, z'
loop_
 _atom_site_type_symbol
 _atom_site_label
 _atom_site_symmetry_multiplicity
 _atom_site_fract_x
 _atom_site_fract_y
 _atom_site_fract_z
 _atom_site_occupancy
  H  H0  1  0.50000000  0.34324131  0.08629388  1
  H  H1  1  0.00000000  0.13096415  0.73754690  1
  H  H2  1  0.00000000  0.00243548  0.86242387  1
  Br  Br3  1  0.50000000  0.57848605  0.31374035  1
