# generated using pymatgen
data_H2Br
_symmetry_space_group_name_H-M   'P 1'
_cell_length_a   7.40021867
_cell_length_b   7.40021867
_cell_length_c   5.39169014
_cell_angle_alpha   69.11266851
_cell_angle_beta   69.11266851
_cell_angle_gamma   36.74469075
_symmetry_Int_Tables_number   1
_chemical_formula_structural   H2Br
_chemical_formula_sum   'H4 Br2'
_cell_volume   163.70397667
_cell_formula_units_Z   2
loop_
 _symmetry_equiv_pos_site_id
 _symmetry_equiv_pos_as_xyz
  1  'x, y, z'
loop_
 _atom_site_type_symbol
 _atom_site_label
 _atom_site_symmetry_multiplicity
 _atom_site_fract_x
 _atom_site_fract_y
 _atom_site_fract_z
 _atom_site_occupancy
  H  H0  1  0.90260329  0.90260329  0.07694581  1
  H  H1  1  0.86030792  0.86030792  0.61785744  1
  H  H2  1  0.59593582  0.59593582  0.15225728  1
  H  H3  1  0.57401801  0.57401801  0.30268763  1
  Br  Br4  1  0.78126149  0.78126149  0.49960150  1
  Br  Br5  1  0.98157346  0.98157346  0.80384034  1
