# generated using pymatgen
data_NaP3(PbO3)4
_symmetry_space_group_name_H-M   'P 1'
_cell_length_a   9.70650018
_cell_length_b   9.70650018
_cell_length_c   9.70650000
_cell_angle_alpha   90.00000000
_cell_angle_beta   90.00000000
_cell_angle_gamma   120.00000000
_symmetry_Int_Tables_number   1
_chemical_formula_structural   NaP3(PbO3)4
_chemical_formula_sum   'Na2 P6 Pb8 O24'
_cell_volume   791.98804216
_cell_formula_units_Z   2
loop_
 _symmetry_equiv_pos_site_id
 _symmetry_equiv_pos_as_xyz
  1  'x, y, z'
loop_
 _atom_site_type_symbol
 _atom_site_label
 _atom_site_symmetry_multiplicity
 _atom_site_fract_x
 _atom_site_fract_y
 _atom_site_fract_z
 _atom_site_occupancy
  Na  Na0  1  0.33333333  0.66666667  0.51125000  1.0
  Na  Na1  1  0.66666667  0.33333333  0.01125000  1.0
  P  P2  1  0.02109900  0.39999900  0.25000000  1.0
  P  P3  1  0.37890000  0.97890100  0.25000000  1.0
  P  P4  1  0.39999900  0.37890000  0.75000000  1.0
  P  P5  1  0.60000100  0.62110000  0.25000000  1.0
  P  P6  1  0.62110000  0.02109900  0.75000000  1.0
  P  P7  1  0.97890100  0.60000100  0.75000000  1.0
  Pb  Pb8  1  0.25513900  0.99843900  0.75000000  1.0
  Pb  Pb9  1  0.00156100  0.25670000  0.75000000  1.0
  Pb  Pb10  1  0.33333333  0.66666667  0.98875000  1.0
  Pb  Pb11  1  0.25670000  0.25513900  0.25000000  1.0
  Pb  Pb12  1  0.74330000  0.74486100  0.75000000  1.0
  Pb  Pb13  1  0.66666667  0.33333333  0.48875000  1.0
  Pb  Pb14  1  0.99843900  0.74330000  0.25000000  1.0
  Pb  Pb15  1  0.74486100  0.00156100  0.25000000  1.0
  O  O16  1  0.26949900  0.92259900  0.07970000  1.0
  O  O17  1  0.26949900  0.92259900  0.42030000  1.0
  O  O18  1  0.10459900  0.58419900  0.25000000  1.0
  O  O19  1  0.15889900  0.67339900  0.75000000  1.0
  O  O20  1  0.07740100  0.34690000  0.07970000  1.0
  O  O21  1  0.07740100  0.34690000  0.42030000  1.0
  O  O22  1  0.47960000  0.89540100  0.25000000  1.0
  O  O23  1  0.32660100  0.48550000  0.75000000  1.0
  O  O24  1  0.51450000  0.84110100  0.75000000  1.0
  O  O25  1  0.41580100  0.52040000  0.25000000  1.0
  O  O26  1  0.34690000  0.26949900  0.57970000  1.0
  O  O27  1  0.34690000  0.26949900  0.92030000  1.0
  O  O28  1  0.65310000  0.73050100  0.07970000  1.0
  O  O29  1  0.65310000  0.73050100  0.42030000  1.0
  O  O30  1  0.58419900  0.47960000  0.75000000  1.0
  O  O31  1  0.48550000  0.15889900  0.25000000  1.0
  O  O32  1  0.67339900  0.51450000  0.25000000  1.0
  O  O33  1  0.52040000  0.10459900  0.75000000  1.0
  O  O34  1  0.92259900  0.65310000  0.57970000  1.0
  O  O35  1  0.92259900  0.65310000  0.92030000  1.0
  O  O36  1  0.84110100  0.32660100  0.25000000  1.0
  O  O37  1  0.89540100  0.41580100  0.75000000  1.0
  O  O38  1  0.73050100  0.07740100  0.57970000  1.0
  O  O39  1  0.73050100  0.07740100  0.92030000  1.0
