# generated using pymatgen
data_Zn3B7ClO13
_symmetry_space_group_name_H-M   'P 1'
_cell_length_a   8.65923855
_cell_length_b   8.65923855
_cell_length_c   8.65923855
_cell_angle_alpha   59.80068523
_cell_angle_beta   59.80068523
_cell_angle_gamma   59.80068523
_symmetry_Int_Tables_number   1
_chemical_formula_structural   Zn3B7ClO13
_chemical_formula_sum   'Zn6 B14 Cl2 O26'
_cell_volume   457.04045951
_cell_formula_units_Z   2
loop_
 _symmetry_equiv_pos_site_id
 _symmetry_equiv_pos_as_xyz
  1  'x, y, z'
loop_
 _atom_site_type_symbol
 _atom_site_label
 _atom_site_symmetry_multiplicity
 _atom_site_fract_x
 _atom_site_fract_y
 _atom_site_fract_z
 _atom_site_occupancy
  Zn  Zn0  1  0.97239300  0.53559800  0.97127300  1
  Zn  Zn1  1  0.97127300  0.97239300  0.53559800  1
  Zn  Zn2  1  0.53559800  0.97127300  0.97239300  1
  Zn  Zn3  1  0.47127300  0.03559800  0.47239300  1
  Zn  Zn4  1  0.47239300  0.47127300  0.03559800  1
  Zn  Zn5  1  0.03559800  0.47239300  0.47127300  1
  B  B6  1  0.26689100  0.57335400  0.57288100  1
  B  B7  1  0.60312700  0.60312700  0.60312700  1
  B  B8  1  0.10312700  0.10312700  0.10312700  1
  B  B9  1  0.57288100  0.26689100  0.57335400  1
  B  B10  1  0.57335400  0.57288100  0.26689100  1
  B  B11  1  0.07288100  0.07335400  0.76689100  1
  B  B12  1  0.76689100  0.07288100  0.07335400  1
  B  B13  1  0.07335400  0.76689100  0.07288100  1
  B  B14  1  0.24785400  0.75416600  0.24663700  1
  B  B15  1  0.75416600  0.24663700  0.24785400  1
  B  B16  1  0.24663700  0.24785400  0.75416600  1
  B  B17  1  0.74785400  0.74663700  0.25416600  1
  B  B18  1  0.74663700  0.25416600  0.74785400  1
  B  B19  1  0.25416600  0.74785400  0.74663700  1
  Cl  Cl20  1  0.76966300  0.76966300  0.76966300  1
  Cl  Cl21  1  0.26966300  0.26966300  0.26966300  1
  O  O22  1  0.61263400  0.18943100  0.43490800  1
  O  O23  1  0.18943100  0.43490800  0.61263400  1
  O  O24  1  0.24833000  0.10053100  0.71477100  1
  O  O25  1  0.10053100  0.71477100  0.24833000  1
  O  O26  1  0.71477100  0.24833000  0.10053100  1
  O  O27  1  0.60053100  0.74833000  0.21477100  1
  O  O28  1  0.74833000  0.21477100  0.60053100  1
  O  O29  1  0.21477100  0.60053100  0.74833000  1
  O  O30  1  0.98793700  0.98793700  0.98793700  1
  O  O31  1  0.48793700  0.48793700  0.48793700  1
  O  O32  1  0.10663500  0.26483900  0.94566600  1
  O  O33  1  0.26483900  0.94566600  0.10663500  1
  O  O34  1  0.94566600  0.10663500  0.26483900  1
  O  O35  1  0.60663500  0.44566600  0.76483900  1
  O  O36  1  0.44566600  0.76483900  0.60663500  1
  O  O37  1  0.76483900  0.60663500  0.44566600  1
  O  O38  1  0.70025000  0.93524300  0.25298500  1
  O  O39  1  0.93524300  0.25298500  0.70025000  1
  O  O40  1  0.25298500  0.70025000  0.93524300  1
  O  O41  1  0.20025000  0.75298500  0.43524300  1
  O  O42  1  0.75298500  0.43524300  0.20025000  1
  O  O43  1  0.43524300  0.20025000  0.75298500  1
  O  O44  1  0.93490800  0.68943100  0.11263400  1
  O  O45  1  0.68943100  0.11263400  0.93490800  1
  O  O46  1  0.11263400  0.93490800  0.68943100  1
  O  O47  1  0.43490800  0.61263400  0.18943100  1
