# generated using pymatgen
data_Li2BeF4
_symmetry_space_group_name_H-M   'P 1'
_cell_length_a   4.95188987
_cell_length_b   4.95188987
_cell_length_c   4.95188987
_cell_angle_alpha   124.45503222
_cell_angle_beta   124.45503222
_cell_angle_gamma   82.44264955
_symmetry_Int_Tables_number   1
_chemical_formula_structural   Li2BeF4
_chemical_formula_sum   'Li2 Be1 F4'
_cell_volume   79.32120983
_cell_formula_units_Z   1
loop_
 _symmetry_equiv_pos_site_id
 _symmetry_equiv_pos_as_xyz
  1  'x, y, z'
loop_
 _atom_site_type_symbol
 _atom_site_label
 _atom_site_symmetry_multiplicity
 _atom_site_fract_x
 _atom_site_fract_y
 _atom_site_fract_z
 _atom_site_occupancy
  Li  Li0  1  0.75000000  0.25000000  0.50000000  1
  Li  Li1  1  0.25000000  0.75000000  0.50000000  1
  Be  Be2  1  0.50000000  0.50000000  0.00000000  1
  F  F3  1  0.81702251  0.81702251  0.38938739  1
  F  F4  1  0.42763512  0.42763512  0.61061261  1
  F  F5  1  0.57236488  0.18297749  1.00000000  1
  F  F6  1  0.18297749  0.57236488  0.00000000  1
