# generated using pymatgen
data_CF4
_symmetry_space_group_name_H-M   'P 1'
_cell_length_a   4.48325393
_cell_length_b   4.67108760
_cell_length_c   21.89106027
_cell_angle_alpha   90.00000000
_cell_angle_beta   90.00000000
_cell_angle_gamma   118.43752918
_symmetry_Int_Tables_number   1
_chemical_formula_structural   CF4
_chemical_formula_sum   'C2 F8'
_cell_volume   403.11913939
_cell_formula_units_Z   2
loop_
 _symmetry_equiv_pos_site_id
 _symmetry_equiv_pos_as_xyz
  1  'x, y, z'
loop_
 _atom_site_type_symbol
 _atom_site_label
 _atom_site_symmetry_multiplicity
 _atom_site_fract_x
 _atom_site_fract_y
 _atom_site_fract_z
 _atom_site_occupancy
  C  C0  1  0.53035075  0.16552124  0.60639778  1
  C  C1  1  0.02974861  0.15814176  0.39359872  1
  F  F2  1  0.83611399  0.42698065  0.61453587  1
  F  F3  1  0.38235915  0.20805700  0.55644896  1
  F  F4  1  0.87866398  0.19768620  0.44336834  1
  F  F5  1  0.33586299  0.42031571  0.38620436  1
  F  F6  1  0.33653415  0.12690941  0.65561386  1
  F  F7  1  0.83852193  0.12158100  0.34405984  1
  F  F8  1  0.07026204  0.89292056  0.40075985  1
  F  F9  1  0.57068246  0.90008657  0.59901242  1
