# generated using pymatgen
data_GeTe5Pb4
_symmetry_space_group_name_H-M   'P 1'
_cell_length_a   7.91968414
_cell_length_b   7.91968414
_cell_length_c   7.91968414
_cell_angle_alpha   99.80571421
_cell_angle_beta   99.80571421
_cell_angle_gamma   131.25294437
_symmetry_Int_Tables_number   1
_chemical_formula_structural   GeTe5Pb4
_chemical_formula_sum   'Ge1 Te5 Pb4'
_cell_volume   340.16359746
_cell_formula_units_Z   1
loop_
 _symmetry_equiv_pos_site_id
 _symmetry_equiv_pos_as_xyz
  1  'x, y, z'
loop_
 _atom_site_type_symbol
 _atom_site_label
 _atom_site_symmetry_multiplicity
 _atom_site_fract_x
 _atom_site_fract_y
 _atom_site_fract_z
 _atom_site_occupancy
  Ge  Ge0  1  0.96365030  0.96365030  0.00000000  1
  Te  Te1  1  0.90859196  0.29085299  0.18739359  1
  Te  Te2  1  0.29085299  0.10345940  0.38226103  1
  Te  Te3  1  0.72119837  0.90859196  0.61773897  1
  Te  Te4  1  0.10345940  0.72119837  0.81260641  1
  Te  Te5  1  0.53511824  0.53511824  0.00000000  1
  Pb  Pb6  1  0.39684945  0.79435760  0.20779216  1
  Pb  Pb7  1  0.79435760  0.58656544  0.39750815  1
  Pb  Pb8  1  0.18905729  0.39684945  0.60249185  1
  Pb  Pb9  1  0.58656544  0.18905729  0.79220784  1
