# generated using pymatgen
data_GeF4
_symmetry_space_group_name_H-M   'P 1'
_cell_length_a   4.72964643
_cell_length_b   4.76100262
_cell_length_c   17.84292697
_cell_angle_alpha   90.00000000
_cell_angle_beta   90.00000000
_cell_angle_gamma   117.35326191
_symmetry_Int_Tables_number   1
_chemical_formula_structural   GeF4
_chemical_formula_sum   'Ge1 F4'
_cell_volume   356.86118457
_cell_formula_units_Z   1
loop_
 _symmetry_equiv_pos_site_id
 _symmetry_equiv_pos_as_xyz
  1  'x, y, z'
loop_
 _atom_site_type_symbol
 _atom_site_label
 _atom_site_symmetry_multiplicity
 _atom_site_fract_x
 _atom_site_fract_y
 _atom_site_fract_z
 _atom_site_occupancy
  Ge  Ge0  1  0.96432512  0.08323547  0.49999967  1
  F  F1  1  0.15586284  0.27461260  0.57959320  1
  F  F2  1  0.15607339  0.27281814  0.42026245  1
  F  F3  1  0.91544435  0.70181809  0.50041826  1
  F  F4  1  0.58176350  0.03914489  0.49972641  1
