# generated using pymatgen
data_AsPbClO2
_symmetry_space_group_name_H-M   'P 1'
_cell_length_a   6.93300000
_cell_length_b   9.92300000
_cell_length_c   11.37400000
_cell_angle_alpha   90.00000000
_cell_angle_beta   90.00000000
_cell_angle_gamma   90.00000000
_symmetry_Int_Tables_number   1
_chemical_formula_structural   AsPbClO2
_chemical_formula_sum   'As8 Pb8 Cl8 O16'
_cell_volume   782.48751247
_cell_formula_units_Z   8
loop_
 _symmetry_equiv_pos_site_id
 _symmetry_equiv_pos_as_xyz
  1  'x, y, z'
loop_
 _atom_site_type_symbol
 _atom_site_label
 _atom_site_symmetry_multiplicity
 _atom_site_fract_x
 _atom_site_fract_y
 _atom_site_fract_z
 _atom_site_occupancy
  As  As0  1  0.92360000  0.88200000  0.46530000  1.0
  As  As1  1  0.57640000  0.11800000  0.96530000  1.0
  As  As2  1  0.70190000  0.80960000  0.70060000  1.0
  As  As3  1  0.07640000  0.38200000  0.03470000  1.0
  As  As4  1  0.29810000  0.30960000  0.79940000  1.0
  As  As5  1  0.20190000  0.69040000  0.29940000  1.0
  As  As6  1  0.79810000  0.19040000  0.20060000  1.0
  As  As7  1  0.42360000  0.61800000  0.53470000  1.0
  Pb  Pb8  1  0.92440000  0.49700000  0.49080000  1.0
  Pb  Pb9  1  0.07560000  0.99700000  0.00920000  1.0
  Pb  Pb10  1  0.42440000  0.00300000  0.50920000  1.0
  Pb  Pb11  1  0.16120000  0.66720000  0.78390000  1.0
  Pb  Pb12  1  0.83880000  0.16720000  0.71610000  1.0
  Pb  Pb13  1  0.57560000  0.50300000  0.99080000  1.0
  Pb  Pb14  1  0.33880000  0.33280000  0.28390000  1.0
  Pb  Pb15  1  0.66120000  0.83280000  0.21610000  1.0
  Cl  Cl16  1  0.06230000  0.23000000  0.46630000  1.0
  Cl  Cl17  1  0.56230000  0.27000000  0.53370000  1.0
  Cl  Cl18  1  0.34020000  0.01650000  0.23960000  1.0
  Cl  Cl19  1  0.43770000  0.77000000  0.96630000  1.0
  Cl  Cl20  1  0.65980000  0.51650000  0.26040000  1.0
  Cl  Cl21  1  0.93770000  0.73000000  0.03370000  1.0
  Cl  Cl22  1  0.15980000  0.98350000  0.73960000  1.0
  Cl  Cl23  1  0.84020000  0.48350000  0.76040000  1.0
  O  O24  1  0.03000000  0.25400000  0.14740000  1.0
  O  O25  1  0.53000000  0.24600000  0.85260000  1.0
  O  O26  1  0.16090000  0.25490000  0.92820000  1.0
  O  O27  1  0.33910000  0.74510000  0.42820000  1.0
  O  O28  1  0.16010000  0.52420000  0.34490000  1.0
  O  O29  1  0.97000000  0.75400000  0.35260000  1.0
  O  O30  1  0.79360000  0.06880000  0.90180000  1.0
  O  O31  1  0.83990000  0.02420000  0.15510000  1.0
  O  O32  1  0.33990000  0.47580000  0.84490000  1.0
  O  O33  1  0.66090000  0.24510000  0.07180000  1.0
  O  O34  1  0.66010000  0.97580000  0.65510000  1.0
  O  O35  1  0.70640000  0.93120000  0.40180000  1.0
  O  O36  1  0.83910000  0.75490000  0.57180000  1.0
  O  O37  1  0.29360000  0.43120000  0.09820000  1.0
  O  O38  1  0.47000000  0.74600000  0.64740000  1.0
  O  O39  1  0.20640000  0.56880000  0.59820000  1.0
