# generated using pymatgen
data_CsAlBr4
_symmetry_space_group_name_H-M   'P 1'
_cell_length_a   7.52135059
_cell_length_b   7.57284053
_cell_length_c   18.40107198
_cell_angle_alpha   90.00000000
_cell_angle_beta   90.00000000
_cell_angle_gamma   118.96463471
_symmetry_Int_Tables_number   1
_chemical_formula_structural   CsAlBr4
_chemical_formula_sum   'Cs1 Al1 Br4'
_cell_volume   916.99192061
_cell_formula_units_Z   1
loop_
 _symmetry_equiv_pos_site_id
 _symmetry_equiv_pos_as_xyz
  1  'x, y, z'
loop_
 _atom_site_type_symbol
 _atom_site_label
 _atom_site_symmetry_multiplicity
 _atom_site_fract_x
 _atom_site_fract_y
 _atom_site_fract_z
 _atom_site_occupancy
  Cs  Cs0  1  0.08115533  0.69904979  0.51229214  1
  Al  Al1  1  0.38609333  0.37830508  0.49599224  1
  Br  Br2  1  0.26435623  0.43516225  0.38773602  1
  Br  Br3  1  0.57142595  0.21014530  0.47772033  1
  Br  Br4  1  0.58734285  0.68743335  0.55369314  1
  Br  Br5  1  0.10967814  0.19071622  0.57256612  1
