# generated using pymatgen
data_Ga2AsP
_symmetry_space_group_name_H-M   'P 1'
_cell_length_a   6.88067475
_cell_length_b   6.88067475
_cell_length_c   6.88067475
_cell_angle_alpha   131.77794396
_cell_angle_beta   131.77794396
_cell_angle_gamma   70.57996716
_symmetry_Int_Tables_number   1
_chemical_formula_structural   Ga2AsP
_chemical_formula_sum   'Ga4 As2 P2'
_cell_volume   177.48735030
_cell_formula_units_Z   2
loop_
 _symmetry_equiv_pos_site_id
 _symmetry_equiv_pos_as_xyz
  1  'x, y, z'
loop_
 _atom_site_type_symbol
 _atom_site_label
 _atom_site_symmetry_multiplicity
 _atom_site_fract_x
 _atom_site_fract_y
 _atom_site_fract_z
 _atom_site_occupancy
  Ga  Ga0  1  0.13819510  0.62500000  0.01319510  1
  Ga  Ga1  1  0.61180490  0.12500000  0.98680490  1
  Ga  Ga2  1  0.37500000  0.38819510  0.51319510  1
  Ga  Ga3  1  0.87500000  0.86180490  0.48680490  1
  As  As4  1  0.75000000  0.25000000  0.50000000  1
  As  As5  1  0.00000000  0.00000000  0.00000000  1
  P  P6  1  0.25000000  0.75000000  0.50000000  1
  P  P7  1  0.50000000  0.50000000  1.00000000  1
