# generated using pymatgen
data_BeZn3Te4
_symmetry_space_group_name_H-M   'P 1'
_cell_length_a   7.39703489
_cell_length_b   7.39703489
_cell_length_c   7.39703489
_cell_angle_alpha   131.69523382
_cell_angle_beta   131.69523382
_cell_angle_gamma   70.71079993
_symmetry_Int_Tables_number   1
_chemical_formula_structural   BeZn3Te4
_chemical_formula_sum   'Be1 Zn3 Te4'
_cell_volume   221.05248044
_cell_formula_units_Z   1
loop_
 _symmetry_equiv_pos_site_id
 _symmetry_equiv_pos_as_xyz
  1  'x, y, z'
loop_
 _atom_site_type_symbol
 _atom_site_label
 _atom_site_symmetry_multiplicity
 _atom_site_fract_x
 _atom_site_fract_y
 _atom_site_fract_z
 _atom_site_occupancy
  Be  Be0  1  0.00000000  0.00000000  0.00000000  1
  Zn  Zn1  1  0.50000000  0.50000000  1.00000000  1
  Zn  Zn2  1  0.25000000  0.75000000  0.50000000  1
  Zn  Zn3  1  0.75000000  0.25000000  0.50000000  1
  Te  Te4  1  0.35427309  0.35427309  0.47033616  1
  Te  Te5  1  0.88393693  0.88393693  0.52966384  1
  Te  Te6  1  0.64572691  0.11606307  1.00000000  1
  Te  Te7  1  0.11606307  0.64572691  1.00000000  1
