# generated using pymatgen
data_As2PbSe4
_symmetry_space_group_name_H-M   'P 1'
_cell_length_a   8.78091412
_cell_length_b   8.78091412
_cell_length_c   7.23220122
_cell_angle_alpha   72.43054050
_cell_angle_beta   72.43054050
_cell_angle_gamma   116.00479392
_symmetry_Int_Tables_number   1
_chemical_formula_structural   As2PbSe4
_chemical_formula_sum   'As4 Pb2 Se8'
_cell_volume   411.90344989
_cell_formula_units_Z   2
loop_
 _symmetry_equiv_pos_site_id
 _symmetry_equiv_pos_as_xyz
  1  'x, y, z'
loop_
 _atom_site_type_symbol
 _atom_site_label
 _atom_site_symmetry_multiplicity
 _atom_site_fract_x
 _atom_site_fract_y
 _atom_site_fract_z
 _atom_site_occupancy
  As  As0  1  0.21473883  0.69287091  0.65010191  1
  As  As1  1  0.69287091  0.21473883  0.15010191  1
  As  As2  1  0.60629848  0.67101815  0.72190959  1
  As  As3  1  0.67101815  0.60629848  0.22190959  1
  Pb  Pb4  1  0.02366044  0.31136474  0.52816806  1
  Pb  Pb5  1  0.31136474  0.02366044  0.02816806  1
  Se  Se6  1  0.85148735  0.85392917  0.31365403  1
  Se  Se7  1  0.37349908  0.16117862  0.33223945  1
  Se  Se8  1  0.16117862  0.37349908  0.83223945  1
  Se  Se9  1  0.36136501  0.73725967  0.27120686  1
  Se  Se10  1  0.50081471  0.89046707  0.68270871  1
  Se  Se11  1  0.85392917  0.85148735  0.81365403  1
  Se  Se12  1  0.89046707  0.50081471  0.18270871  1
  Se  Se13  1  0.73725967  0.36136501  0.77120686  1
