# generated using pymatgen
data_CF4
_symmetry_space_group_name_H-M   'P 1'
_cell_length_a   4.46228403
_cell_length_b   4.58001879
_cell_length_c   17.20137387
_cell_angle_alpha   90.00000000
_cell_angle_beta   90.00000000
_cell_angle_gamma   90.94606106
_symmetry_Int_Tables_number   1
_chemical_formula_structural   CF4
_chemical_formula_sum   'C1 F4'
_cell_volume   351.50248441
_cell_formula_units_Z   1
loop_
 _symmetry_equiv_pos_site_id
 _symmetry_equiv_pos_as_xyz
  1  'x, y, z'
loop_
 _atom_site_type_symbol
 _atom_site_label
 _atom_site_symmetry_multiplicity
 _atom_site_fract_x
 _atom_site_fract_y
 _atom_site_fract_z
 _atom_site_occupancy
  C  C0  1  0.85758333  0.87352552  0.49999808  1
  F  F1  1  0.75189011  0.73903928  0.43598593  1
  F  F2  1  0.75107964  0.73929696  0.56396256  1
  F  F3  1  0.77042414  0.15310570  0.49992462  1
  F  F4  1  0.15843050  0.86474255  0.50012881  1
