# generated using pymatgen
data_GeAsP
_symmetry_space_group_name_H-M   'P 1'
_cell_length_a   7.17793960
_cell_length_b   7.17793960
_cell_length_c   5.12131299
_cell_angle_alpha   71.38275829
_cell_angle_beta   71.38275829
_cell_angle_gamma   41.79430913
_symmetry_Int_Tables_number   1
_chemical_formula_structural   GeAsP
_chemical_formula_sum   'Ge2 As2 P2'
_cell_volume   165.26842130
_cell_formula_units_Z   2
loop_
 _symmetry_equiv_pos_site_id
 _symmetry_equiv_pos_as_xyz
  1  'x, y, z'
loop_
 _atom_site_type_symbol
 _atom_site_label
 _atom_site_symmetry_multiplicity
 _atom_site_fract_x
 _atom_site_fract_y
 _atom_site_fract_z
 _atom_site_occupancy
  Ge  Ge0  1  0.68445608  0.81498620  0.25437211  1
  Ge  Ge1  1  0.18501380  0.31554392  0.74562789  1
  As  As2  1  0.96530017  0.78285083  0.79652227  1
  As  As3  1  0.21714917  0.03469983  0.20347773  1
  P  P4  1  0.62973211  0.09527131  0.48171920  1
  P  P5  1  0.90472869  0.37026789  0.51828080  1
