# generated using pymatgen
data_CdIBr
_symmetry_space_group_name_H-M   'P 1'
_cell_length_a   8.28509141
_cell_length_b   8.28509141
_cell_length_c   17.95982476
_cell_angle_alpha   90.00000000
_cell_angle_beta   90.00000000
_cell_angle_gamma   51.91467249
_symmetry_Int_Tables_number   1
_chemical_formula_structural   CdIBr
_chemical_formula_sum   'Cd2 I2 Br2'
_cell_volume   970.33737291
_cell_formula_units_Z   2
loop_
 _symmetry_equiv_pos_site_id
 _symmetry_equiv_pos_as_xyz
  1  'x, y, z'
loop_
 _atom_site_type_symbol
 _atom_site_label
 _atom_site_symmetry_multiplicity
 _atom_site_fract_x
 _atom_site_fract_y
 _atom_site_fract_z
 _atom_site_occupancy
  Cd  Cd0  1  0.49862464  0.00152624  0.49844275  1
  Cd  Cd1  1  0.99847376  0.50137535  0.49844275  1
  I  I2  1  0.85338530  0.85626442  0.58317989  1
  I  I3  1  0.14373558  0.14661471  0.58317989  1
  Br  Br4  1  0.65947705  0.66204320  0.41837737  1
  Br  Br5  1  0.33795680  0.34052296  0.41837737  1
