# generated using pymatgen
data_KB5(H2O3)4
_symmetry_space_group_name_H-M   'P 1'
_cell_length_a   7.18714662
_cell_length_b   7.18714662
_cell_length_c   11.06200000
_cell_angle_alpha   90.00000000
_cell_angle_beta   90.00000000
_cell_angle_gamma   102.05164832
_symmetry_Int_Tables_number   1
_chemical_formula_structural   KB5(H2O3)4
_chemical_formula_sum   'K2 B10 H16 O24'
_cell_volume   558.81449133
_cell_formula_units_Z   2
loop_
 _symmetry_equiv_pos_site_id
 _symmetry_equiv_pos_as_xyz
  1  'x, y, z'
loop_
 _atom_site_type_symbol
 _atom_site_label
 _atom_site_symmetry_multiplicity
 _atom_site_fract_x
 _atom_site_fract_y
 _atom_site_fract_z
 _atom_site_occupancy
  K  K26  1  0.50000000  0.50000000  0.00000000  1.0
  K  K27  1  0.00000000  0.00000000  0.50000000  1.0
  B  B0  1  0.89700000  0.89700000  0.00000000  1.0
  B  B1  1  0.39700000  0.39700000  0.50000000  1.0
  B  B2  1  0.70490000  0.88910000  0.18780000  1.0
  B  B3  1  0.88910000  0.70490000  0.81220000  1.0
  B  B4  1  0.20490000  0.38910000  0.31220000  1.0
  B  B5  1  0.38910000  0.20490000  0.68780000  1.0
  B  B6  1  0.03550000  0.92050000  0.20310000  1.0
  B  B7  1  0.92050000  0.03550000  0.79690000  1.0
  B  B8  1  0.53550000  0.42050000  0.29690000  1.0
  B  B9  1  0.42050000  0.53550000  0.70310000  1.0
  H  H10  1  0.01300000  0.52900000  0.98500000  1.0
  H  H11  1  0.52900000  0.01300000  0.01500000  1.0
  H  H12  1  0.51300000  0.02900000  0.51500000  1.0
  H  H13  1  0.02900000  0.51300000  0.48500000  1.0
  H  H14  1  0.01400000  0.31400000  0.98200000  1.0
  H  H15  1  0.31400000  0.01400000  0.01800000  1.0
  H  H16  1  0.51400000  0.81400000  0.51800000  1.0
  H  H17  1  0.81400000  0.51400000  0.48200000  1.0
  H  H18  1  0.02400000  0.40000000  0.16700000  1.0
  H  H19  1  0.40000000  0.02400000  0.83300000  1.0
  H  H20  1  0.52400000  0.90000000  0.33300000  1.0
  H  H21  1  0.90000000  0.52400000  0.66700000  1.0
  H  H22  1  0.30900000  0.94500000  0.24300000  1.0
  H  H23  1  0.94500000  0.30900000  0.75700000  1.0
  H  H24  1  0.80900000  0.44500000  0.25700000  1.0
  H  H25  1  0.44500000  0.80900000  0.74300000  1.0
  O  O28  1  0.72400000  0.89000000  0.06590000  1.0
  O  O29  1  0.89000000  0.72400000  0.93410000  1.0
  O  O30  1  0.22400000  0.39000000  0.43410000  1.0
  O  O31  1  0.39000000  0.22400000  0.56590000  1.0
  O  O32  1  0.06460000  0.92340000  0.08520000  1.0
  O  O33  1  0.92340000  0.06460000  0.91480000  1.0
  O  O34  1  0.56460000  0.42340000  0.41480000  1.0
  O  O35  1  0.42340000  0.56460000  0.58520000  1.0
  O  O36  1  0.87290000  0.92510000  0.25460000  1.0
  O  O37  1  0.92510000  0.87290000  0.74540000  1.0
  O  O38  1  0.37290000  0.42510000  0.24540000  1.0
  O  O39  1  0.42510000  0.37290000  0.75460000  1.0
  O  O40  1  0.52800000  0.87800000  0.24570000  1.0
  O  O41  1  0.87800000  0.52800000  0.75430000  1.0
  O  O42  1  0.02800000  0.37800000  0.25430000  1.0
  O  O43  1  0.37800000  0.02800000  0.74570000  1.0
  O  O44  1  0.19100000  0.95100000  0.27970000  1.0
  O  O45  1  0.95100000  0.19100000  0.72030000  1.0
  O  O46  1  0.69100000  0.45100000  0.22030000  1.0
  O  O47  1  0.45100000  0.69100000  0.77970000  1.0
  O  O48  1  0.07360000  0.42840000  0.01650000  1.0
  O  O49  1  0.42840000  0.07360000  0.98350000  1.0
  O  O50  1  0.57360000  0.92840000  0.48350000  1.0
  O  O51  1  0.92840000  0.57360000  0.51650000  1.0
