# generated using pymatgen
data_SBr
_symmetry_space_group_name_H-M   'P 1'
_cell_length_a   7.29983487
_cell_length_b   9.12952882
_cell_length_c   9.74309630
_cell_angle_alpha   90.00000000
_cell_angle_beta   90.00000000
_cell_angle_gamma   90.00000000
_symmetry_Int_Tables_number   1
_chemical_formula_structural   SBr
_chemical_formula_sum   'S8 Br8'
_cell_volume   649.31942452
_cell_formula_units_Z   8
loop_
 _symmetry_equiv_pos_site_id
 _symmetry_equiv_pos_as_xyz
  1  'x, y, z'
loop_
 _atom_site_type_symbol
 _atom_site_label
 _atom_site_symmetry_multiplicity
 _atom_site_fract_x
 _atom_site_fract_y
 _atom_site_fract_z
 _atom_site_occupancy
  S  S0  1  0.76019926  0.00531939  0.23008276  1
  S  S1  1  0.73980074  0.99468061  0.73008276  1
  S  S2  1  0.23980074  0.50531939  0.26991724  1
  S  S3  1  0.26019926  0.49468061  0.76991724  1
  S  S4  1  0.02197832  0.00007334  0.20681972  1
  S  S5  1  0.47802168  0.99992666  0.70681972  1
  S  S6  1  0.97802168  0.50007334  0.29318028  1
  S  S7  1  0.52197832  0.49992666  0.79318028  1
  Br  Br8  1  0.62062193  0.82181004  0.10932185  1
  Br  Br9  1  0.87937807  0.17818996  0.60932185  1
  Br  Br10  1  0.37937807  0.32181004  0.39067815  1
  Br  Br11  1  0.12062193  0.67818996  0.89067815  1
  Br  Br12  1  0.89056015  0.62594959  0.48516026  1
  Br  Br13  1  0.60943985  0.37405041  0.98516026  1
  Br  Br14  1  0.10943985  0.12594959  0.01483974  1
  Br  Br15  1  0.39056015  0.87405041  0.51483974  1
