# generated using pymatgen
data_LiHgPS4
_symmetry_space_group_name_H-M   'P 1'
_cell_length_a   5.98467797
_cell_length_b   5.98526231
_cell_length_c   6.36529535
_cell_angle_alpha   118.03538488
_cell_angle_beta   118.03500581
_cell_angle_gamma   90.00519227
_symmetry_Int_Tables_number   1
_chemical_formula_structural   LiHgPS4
_chemical_formula_sum   'Li1 Hg1 P1 S4'
_cell_volume   170.33807847
_cell_formula_units_Z   1
loop_
 _symmetry_equiv_pos_site_id
 _symmetry_equiv_pos_as_xyz
  1  'x, y, z'
loop_
 _atom_site_type_symbol
 _atom_site_label
 _atom_site_symmetry_multiplicity
 _atom_site_fract_x
 _atom_site_fract_y
 _atom_site_fract_z
 _atom_site_occupancy
  Li  Li0  1  0.49992989  0.49998650  0.00012433  1
  Hg  Hg1  1  0.99997519  0.99996850  0.99995129  1
  P  P2  1  0.74999843  0.25002643  0.50000022  1
  S  S3  1  0.07824043  0.15815331  0.71819907  1
  S  S4  1  0.43990968  0.92180581  0.28177531  1
  S  S5  1  0.84183307  0.35999790  0.28170793  1
  S  S6  1  0.64000231  0.56007053  0.71827384  1
