# generated using pymatgen
data_MgTe
_symmetry_space_group_name_H-M   'P 1'
_cell_length_a   4.61057515
_cell_length_b   4.61057515
_cell_length_c   11.56173421
_cell_angle_alpha   78.50344469
_cell_angle_beta   78.50344469
_cell_angle_gamma   59.97632344
_symmetry_Int_Tables_number   1
_chemical_formula_structural   MgTe
_chemical_formula_sum   'Mg3 Te3'
_cell_volume   207.08372465
_cell_formula_units_Z   3
loop_
 _symmetry_equiv_pos_site_id
 _symmetry_equiv_pos_as_xyz
  1  'x, y, z'
loop_
 _atom_site_type_symbol
 _atom_site_label
 _atom_site_symmetry_multiplicity
 _atom_site_fract_x
 _atom_site_fract_y
 _atom_site_fract_z
 _atom_site_occupancy
  Mg  Mg0  1  0.00035087  0.00035087  0.99985862  1
  Mg  Mg1  1  0.77719873  0.77719873  0.66597730  1
  Mg  Mg2  1  0.55622805  0.55622805  0.33286038  1
  Te  Te3  1  0.91679606  0.91679606  0.25061878  1
  Te  Te4  1  0.47146296  0.47146296  0.58383159  1
  Te  Te5  1  0.69462482  0.69462482  0.91684333  1
