# generated using pymatgen
data_Ba(GaS2)2
_symmetry_space_group_name_H-M   'P 1'
_cell_length_a   6.31871510
_cell_length_b   6.31871510
_cell_length_c   6.06037655
_cell_angle_alpha   61.35528481
_cell_angle_beta   61.35528481
_cell_angle_gamma   76.71471694
_symmetry_Int_Tables_number   1
_chemical_formula_structural   Ba(GaS2)2
_chemical_formula_sum   'Ba1 Ga2 S4'
_cell_volume   186.36288137
_cell_formula_units_Z   1
loop_
 _symmetry_equiv_pos_site_id
 _symmetry_equiv_pos_as_xyz
  1  'x, y, z'
loop_
 _atom_site_type_symbol
 _atom_site_label
 _atom_site_symmetry_multiplicity
 _atom_site_fract_x
 _atom_site_fract_y
 _atom_site_fract_z
 _atom_site_occupancy
  Ba  Ba0  1  0.00007692  0.99992308  -0.00000000  1
  Ga  Ga1  1  0.50001874  0.49998126  0.50000000  1
  Ga  Ga2  1  0.50007825  0.49992175  -0.00000000  1
  S  S3  1  0.81457026  0.49996173  0.59280209  1
  S  S4  1  0.50003827  0.18542974  0.40719791  1
  S  S5  1  0.50003474  0.81447319  0.09281469  1
  S  S6  1  0.18552681  0.49996526  0.90718531  1
