# generated using pymatgen
data_BeZnS2
_symmetry_space_group_name_H-M   'P 1'
_cell_length_a   3.61711457
_cell_length_b   5.98951179
_cell_length_c   6.33843896
_cell_angle_alpha   89.99707410
_cell_angle_beta   89.99643842
_cell_angle_gamma   89.99825537
_symmetry_Int_Tables_number   1
_chemical_formula_structural   BeZnS2
_chemical_formula_sum   'Be2 Zn2 S4'
_cell_volume   137.32069725
_cell_formula_units_Z   2
loop_
 _symmetry_equiv_pos_site_id
 _symmetry_equiv_pos_as_xyz
  1  'x, y, z'
loop_
 _atom_site_type_symbol
 _atom_site_label
 _atom_site_symmetry_multiplicity
 _atom_site_fract_x
 _atom_site_fract_y
 _atom_site_fract_z
 _atom_site_occupancy
  Be  Be0  1  0.16190594  0.60299270  0.48444146  1
  Be  Be1  1  0.16216966  0.10289409  0.16566022  1
  Zn  Zn2  1  0.66209711  0.60667066  0.99687250  1
  Zn  Zn3  1  0.66181055  0.10670096  0.65343239  1
  S  S4  1  0.66191514  0.49803445  0.64036166  1
  S  S5  1  0.66217535  0.99801625  0.00990221  1
  S  S6  1  0.16207937  0.45786322  0.18140673  1
  S  S7  1  0.16187497  0.95789021  0.46885962  1
