# generated using pymatgen
data_Li2MgSiS4
_symmetry_space_group_name_H-M   'P 1'
_cell_length_a   6.29888971
_cell_length_b   6.86826824
_cell_length_c   7.59765425
_cell_angle_alpha   90.00000000
_cell_angle_beta   90.00000000
_cell_angle_gamma   90.00000000
_symmetry_Int_Tables_number   1
_chemical_formula_structural   Li2MgSiS4
_chemical_formula_sum   'Li4 Mg2 Si2 S8'
_cell_volume   328.69324456
_cell_formula_units_Z   2
loop_
 _symmetry_equiv_pos_site_id
 _symmetry_equiv_pos_as_xyz
  1  'x, y, z'
loop_
 _atom_site_type_symbol
 _atom_site_label
 _atom_site_symmetry_multiplicity
 _atom_site_fract_x
 _atom_site_fract_y
 _atom_site_fract_z
 _atom_site_occupancy
  Li  Li0  1  0.49944499  0.33040721  0.25512626  1
  Li  Li1  1  0.49944499  0.33040721  0.74487374  1
  Li  Li2  1  0.99944499  0.66959279  0.75512626  1
  Li  Li3  1  0.99944499  0.66959279  0.24487374  1
  Mg  Mg4  1  0.99521186  0.14444873  0.50000000  1
  Mg  Mg5  1  0.49521186  0.85555127  0.00000000  1
  Si  Si6  1  0.50041254  0.82703241  0.50000000  1
  Si  Si7  1  0.00041254  0.17296759  0.00000000  1
  S  S8  1  0.34039312  0.18225830  0.00000000  1
  S  S9  1  0.84039312  0.81774170  0.50000000  1
  S  S10  1  0.39017343  0.12209828  0.50000000  1
  S  S11  1  0.89017343  0.87790172  0.00000000  1
  S  S12  1  0.38743153  0.67436059  0.72864703  1
  S  S13  1  0.88743153  0.32563941  0.22864703  1
  S  S14  1  0.88743153  0.32563941  0.77135297  1
  S  S15  1  0.38743153  0.67436059  0.27135297  1
