# generated using pymatgen
data_NaAlS2
_symmetry_space_group_name_H-M   'P 1'
_cell_length_a   6.24769160
_cell_length_b   6.24774561
_cell_length_c   7.15604405
_cell_angle_alpha   102.82089205
_cell_angle_beta   102.98022132
_cell_angle_gamma   119.25558211
_symmetry_Int_Tables_number   1
_chemical_formula_structural   NaAlS2
_chemical_formula_sum   'Na2 Al2 S4'
_cell_volume   218.65514413
_cell_formula_units_Z   2
loop_
 _symmetry_equiv_pos_site_id
 _symmetry_equiv_pos_as_xyz
  1  'x, y, z'
loop_
 _atom_site_type_symbol
 _atom_site_label
 _atom_site_symmetry_multiplicity
 _atom_site_fract_x
 _atom_site_fract_y
 _atom_site_fract_z
 _atom_site_occupancy
  Na  Na0  1  0.87313836  0.08272754  0.43067282  1
  Na  Na1  1  0.17398139  0.38292531  0.03386945  1
  Al  Al2  1  0.64195484  0.57486659  0.73228575  1
  Al  Al3  1  0.36588948  0.85097415  0.73224377  1
  S  S4  1  0.32166068  0.18415297  0.73271229  1
  S  S5  1  0.70307695  0.91155178  0.99529872  1
  S  S6  1  0.97487470  0.53043721  0.73210562  1
  S  S7  1  0.43964184  0.64916510  0.46924325  1
