# generated using pymatgen
data_GeH2Br
_symmetry_space_group_name_H-M   'P 1'
_cell_length_a   5.63571134
_cell_length_b   5.63783633
_cell_length_c   5.92587824
_cell_angle_alpha   92.58547086
_cell_angle_beta   92.85673368
_cell_angle_gamma   108.72793603
_symmetry_Int_Tables_number   1
_chemical_formula_structural   GeH2Br
_chemical_formula_sum   'Ge2 H4 Br2'
_cell_volume   177.72160703
_cell_formula_units_Z   2
loop_
 _symmetry_equiv_pos_site_id
 _symmetry_equiv_pos_as_xyz
  1  'x, y, z'
loop_
 _atom_site_type_symbol
 _atom_site_label
 _atom_site_symmetry_multiplicity
 _atom_site_fract_x
 _atom_site_fract_y
 _atom_site_fract_z
 _atom_site_occupancy
  Ge  Ge0  1  0.37472848  0.07777689  0.23133686  1
  Ge  Ge1  1  0.74261487  0.44536631  0.33305054  1
  H  H2  1  0.16073923  0.12299101  0.08882871  1
  H  H3  1  0.90520146  0.53070309  0.13321445  1
  H  H4  1  0.69773692  0.65871536  0.47549431  1
  H  H5  1  0.29028769  0.91426611  0.43103980  1
  Br  Br6  1  0.52148476  0.82200055  0.98203477  1
  Br  Br7  1  0.00013350  0.29828867  0.58205871  1
