# generated using pymatgen
data_ZnH6
_symmetry_space_group_name_H-M   'P 1'
_cell_length_a   4.90018500
_cell_length_b   5.68224822
_cell_length_c   9.87153298
_cell_angle_alpha   90.00000000
_cell_angle_beta   90.00000000
_cell_angle_gamma   90.00000000
_symmetry_Int_Tables_number   1
_chemical_formula_structural   ZnH6
_chemical_formula_sum   'Zn4 H24'
_cell_volume   274.86363056
_cell_formula_units_Z   4
loop_
 _symmetry_equiv_pos_site_id
 _symmetry_equiv_pos_as_xyz
  1  'x, y, z'
loop_
 _atom_site_type_symbol
 _atom_site_label
 _atom_site_symmetry_multiplicity
 _atom_site_fract_x
 _atom_site_fract_y
 _atom_site_fract_z
 _atom_site_occupancy
  Zn  Zn0  1  0.59364819  0.41930169  0.07525702  1
  Zn  Zn1  1  0.09364819  0.58069831  0.92474298  1
  Zn  Zn2  1  0.59364819  0.08069831  0.57525702  1
  Zn  Zn3  1  0.09364819  0.91930169  0.42474298  1
  H  H4  1  0.66625705  0.23852494  0.69821021  1
  H  H5  1  0.16625705  0.76147506  0.30178979  1
  H  H6  1  0.66625705  0.26147506  0.19821021  1
  H  H7  1  0.16625705  0.73852494  0.80178979  1
  H  H8  1  0.53133790  0.73027707  0.70340502  1
  H  H9  1  0.03133790  0.26972293  0.29659498  1
  H  H10  1  0.53133790  0.76972293  0.20340502  1
  H  H11  1  0.03133790  0.23027707  0.79659498  1
  H  H12  1  0.08543221  0.97632705  0.03422268  1
  H  H13  1  0.58543221  0.02367295  0.96577732  1
  H  H14  1  0.08543221  0.52367295  0.53422268  1
  H  H15  1  0.58543221  0.47632705  0.46577732  1
  H  H16  1  0.60185580  0.06704242  0.89373881  1
  H  H17  1  0.10185580  0.93295758  0.10626119  1
  H  H18  1  0.60185580  0.43295758  0.39373881  1
  H  H19  1  0.10185580  0.56704242  0.60626119  1
  H  H20  1  0.25262433  0.45459094  0.05258206  1
  H  H21  1  0.75262433  0.54540906  0.94741794  1
  H  H22  1  0.25262433  0.04540906  0.55258206  1
  H  H23  1  0.75262433  0.95459094  0.44741794  1
  H  H24  1  0.17484453  0.21887220  0.82547099  1
  H  H25  1  0.67484453  0.78112780  0.17452901  1
  H  H26  1  0.17484453  0.28112780  0.32547099  1
  H  H27  1  0.67484453  0.71887220  0.67452901  1
