# generated using pymatgen
data_B2H4Br
_symmetry_space_group_name_H-M   'P 1'
_cell_length_a   5.84152804
_cell_length_b   5.88501194
_cell_length_c   6.74333948
_cell_angle_alpha   77.47064077
_cell_angle_beta   69.45843732
_cell_angle_gamma   84.19003357
_symmetry_Int_Tables_number   1
_chemical_formula_structural   B2H4Br
_chemical_formula_sum   'B4 H8 Br2'
_cell_volume   211.82966388
_cell_formula_units_Z   2
loop_
 _symmetry_equiv_pos_site_id
 _symmetry_equiv_pos_as_xyz
  1  'x, y, z'
loop_
 _atom_site_type_symbol
 _atom_site_label
 _atom_site_symmetry_multiplicity
 _atom_site_fract_x
 _atom_site_fract_y
 _atom_site_fract_z
 _atom_site_occupancy
  B  B0  1  0.52278284  0.66565811  0.78554467  1
  B  B1  1  0.34311519  0.30643569  0.29938547  1
  B  B2  1  0.39116908  0.50034322  0.05451929  1
  B  B3  1  0.70314173  0.60808547  0.94864844  1
  H  H4  1  0.21160884  0.54677420  0.00280540  1
  H  H5  1  0.32978879  0.54377353  0.24769902  1
  H  H6  1  0.83539057  0.44046025  0.96164580  1
  H  H7  1  0.43120596  0.85543969  0.75559299  1
  H  H8  1  0.50385121  0.25512659  0.37209378  1
  H  H9  1  0.76318351  0.69274928  0.74379139  1
  H  H10  1  0.52581504  0.52974304  0.67480819  1
  H  H11  1  0.42009808  0.27311430  0.09450324  1
  Br  Br12  1  0.02299646  0.18030302  0.46279741  1
  Br  Br13  1  0.74585672  0.85199563  0.09616090  1
