# generated using pymatgen
data_Ba4LiTa3O12
_symmetry_space_group_name_H-M   'P 1'
_cell_length_a   5.80200000
_cell_length_b   5.80200000
_cell_length_c   19.08500000
_cell_angle_alpha   90.00000000
_cell_angle_beta   90.00000000
_cell_angle_gamma   120.00000000
_symmetry_Int_Tables_number   1
_chemical_formula_structural   Ba4LiTa3O12
_chemical_formula_sum   'Ba8 Li2 Ta6 O24'
_cell_volume   556.38862803
_cell_formula_units_Z   2
loop_
 _symmetry_equiv_pos_site_id
 _symmetry_equiv_pos_as_xyz
  1  'x, y, z'
loop_
 _atom_site_type_symbol
 _atom_site_label
 _atom_site_symmetry_multiplicity
 _atom_site_fract_x
 _atom_site_fract_y
 _atom_site_fract_z
 _atom_site_occupancy
  Ba  Ba0  1  0.00000000  0.00000000  0.00000000  1.0
  Ba  Ba1  1  0.00000000  0.00000000  0.50000000  1.0
  Ba  Ba2  1  0.33333333  0.66666667  0.12500000  1.0
  Ba  Ba3  1  0.66666667  0.33333333  0.62500000  1.0
  Ba  Ba4  1  0.33333333  0.66666667  0.37500000  1.0
  Ba  Ba5  1  0.66666667  0.33333333  0.87500000  1.0
  Ba  Ba6  1  0.66666667  0.33333333  0.25000000  1.0
  Ba  Ba7  1  0.33333333  0.66666667  0.75000000  1.0
  Li  Li8  1  0.00000000  0.00000000  0.18750000  1.0
  Li  Li9  1  0.00000000  0.00000000  0.68750000  1.0
  Ta  Ta10  1  0.00000000  0.00000000  0.31250000  1.0
  Ta  Ta11  1  0.00000000  0.00000000  0.81250000  1.0
  Ta  Ta12  1  0.33333333  0.66666667  0.56250000  1.0
  Ta  Ta13  1  0.66666667  0.33333333  0.06250000  1.0
  Ta  Ta14  1  0.33333333  0.66666667  0.93750000  1.0
  Ta  Ta15  1  0.66666667  0.33333333  0.43750000  1.0
  O  O16  1  0.83330000  0.66666667  0.75000000  1.0
  O  O17  1  0.16670000  0.33340000  0.25000000  1.0
  O  O18  1  0.66666667  0.83330000  0.25000000  1.0
  O  O19  1  0.83330000  0.16670000  0.75000000  1.0
  O  O20  1  0.16670000  0.83330000  0.87500000  1.0
  O  O21  1  0.33340000  0.16670000  0.37500000  1.0
  O  O22  1  0.83330000  0.66666667  0.37500000  1.0
  O  O23  1  0.16670000  0.33340000  0.87500000  1.0
  O  O24  1  0.66666667  0.83330000  0.87500000  1.0
  O  O25  1  0.83330000  0.16670000  0.37500000  1.0
  O  O26  1  0.16670000  0.83330000  0.62500000  1.0
  O  O27  1  0.33340000  0.16670000  0.12500000  1.0
  O  O28  1  0.16670000  0.83330000  0.25000000  1.0
  O  O29  1  0.33340000  0.16670000  0.75000000  1.0
  O  O30  1  0.50000000  0.50000000  0.00000000  1.0
  O  O31  1  0.00000000  0.50000000  0.50000000  1.0
  O  O32  1  0.50000000  0.00000000  0.50000000  1.0
  O  O33  1  0.50000000  0.00000000  0.00000000  1.0
  O  O34  1  0.00000000  0.50000000  0.00000000  1.0
  O  O35  1  0.50000000  0.50000000  0.50000000  1.0
  O  O36  1  0.83330000  0.16670000  0.12500000  1.0
  O  O37  1  0.66666667  0.83330000  0.62500000  1.0
  O  O38  1  0.16670000  0.33340000  0.62500000  1.0
  O  O39  1  0.83330000  0.66666667  0.12500000  1.0
