# generated using pymatgen
data_GeB4O7
_symmetry_space_group_name_H-M   'P 1'
_cell_length_a   4.25592015
_cell_length_b   4.44832179
_cell_length_c   10.83503940
_cell_angle_alpha   90.00000000
_cell_angle_beta   90.00000000
_cell_angle_gamma   90.00000000
_symmetry_Int_Tables_number   1
_chemical_formula_structural   GeB4O7
_chemical_formula_sum   'Ge2 B8 O14'
_cell_volume   205.12574076
_cell_formula_units_Z   2
loop_
 _symmetry_equiv_pos_site_id
 _symmetry_equiv_pos_as_xyz
  1  'x, y, z'
loop_
 _atom_site_type_symbol
 _atom_site_label
 _atom_site_symmetry_multiplicity
 _atom_site_fract_x
 _atom_site_fract_y
 _atom_site_fract_z
 _atom_site_occupancy
  Ge  Ge0  1  0.70648557  0.83160319  0.50000000  1
  Ge  Ge1  1  0.20648557  0.16839681  0.00000000  1
  B  B2  1  0.59010168  0.67226007  0.87718072  1
  B  B3  1  0.05657497  0.82650717  0.24919139  1
  B  B4  1  0.55657497  0.17349283  0.25080861  1
  B  B5  1  0.09010168  0.32773993  0.62281928  1
  B  B6  1  0.09010168  0.32773993  0.37718072  1
  B  B7  1  0.59010168  0.67226007  0.12281928  1
  B  B8  1  0.05657497  0.82650717  0.75080861  1
  B  B9  1  0.55657497  0.17349283  0.74919139  1
  O  O10  1  0.91787411  0.71899105  0.14022539  1
  O  O11  1  0.41787411  0.28100895  0.35977461  1
  O  O12  1  0.50662125  0.35273462  0.86277108  1
  O  O13  1  0.00662125  0.64726538  0.63722892  1
  O  O14  1  0.00662125  0.64726538  0.36277108  1
  O  O15  1  0.50662125  0.35273462  0.13722892  1
  O  O16  1  0.41182738  0.86733285  0.77983392  1
  O  O17  1  0.91182738  0.13266715  0.72016608  1
  O  O18  1  0.91182738  0.13266715  0.27983392  1
  O  O19  1  0.41182738  0.86733285  0.22016608  1
  O  O20  1  0.48234465  0.77996226  0.00000000  1
  O  O21  1  0.98234465  0.22003774  0.50000000  1
  O  O22  1  0.91787411  0.71899105  0.85977461  1
  O  O23  1  0.41787411  0.28100895  0.64022539  1
