# generated using pymatgen
data_H5Br2N
_symmetry_space_group_name_H-M   'P 1'
_cell_length_a   5.61642186
_cell_length_b   5.61704620
_cell_length_c   5.63144003
_cell_angle_alpha   112.29034864
_cell_angle_beta   116.22585570
_cell_angle_gamma   100.16886019
_symmetry_Int_Tables_number   1
_chemical_formula_structural   H5Br2N
_chemical_formula_sum   'H5 Br2 N1'
_cell_volume   134.18734081
_cell_formula_units_Z   1
loop_
 _symmetry_equiv_pos_site_id
 _symmetry_equiv_pos_as_xyz
  1  'x, y, z'
loop_
 _atom_site_type_symbol
 _atom_site_label
 _atom_site_symmetry_multiplicity
 _atom_site_fract_x
 _atom_site_fract_y
 _atom_site_fract_z
 _atom_site_occupancy
  H  H0  1  0.90737225  0.98797981  0.73831954  1
  H  H1  1  0.19411836  0.98843534  0.02515956  1
  H  H2  1  0.00074681  0.43848687  0.38149424  1
  H  H3  1  0.88361476  0.95671230  0.01623124  1
  H  H4  1  0.88504716  0.68665866  0.74767584  1
  Br  Br5  1  0.72485966  0.16239847  0.38177388  1
  Br  Br6  1  0.21358841  0.65125413  0.38151705  1
  N  N7  1  0.96765659  0.90507441  0.88183364  1
