# generated using pymatgen
data_H2BrCl
_symmetry_space_group_name_H-M   'P 1'
_cell_length_a   5.15747134
_cell_length_b   5.15747134
_cell_length_c   5.58716642
_cell_angle_alpha   89.09621232
_cell_angle_beta   89.09621232
_cell_angle_gamma   48.68710650
_symmetry_Int_Tables_number   1
_chemical_formula_structural   H2BrCl
_chemical_formula_sum   'H2 Br1 Cl1'
_cell_volume   111.61098370
_cell_formula_units_Z   1
loop_
 _symmetry_equiv_pos_site_id
 _symmetry_equiv_pos_as_xyz
  1  'x, y, z'
loop_
 _atom_site_type_symbol
 _atom_site_label
 _atom_site_symmetry_multiplicity
 _atom_site_fract_x
 _atom_site_fract_y
 _atom_site_fract_z
 _atom_site_occupancy
  H  H0  1  0.14147263  0.14147263  0.97235867  1
  H  H1  1  0.60253068  0.60253068  0.46675429  1
  Br  Br2  1  0.23989018  0.23989018  0.77198615  1
  Cl  Cl3  1  0.51612448  0.51612448  0.28890089  1
