# generated using pymatgen
data_H4SeCl2
_symmetry_space_group_name_H-M   'P 1'
_cell_length_a   5.66431612
_cell_length_b   5.66431612
_cell_length_c   5.33169287
_cell_angle_alpha   66.57185926
_cell_angle_beta   66.57185926
_cell_angle_gamma   84.41097086
_symmetry_Int_Tables_number   1
_chemical_formula_structural   H4SeCl2
_chemical_formula_sum   'H4 Se1 Cl2'
_cell_volume   143.64718594
_cell_formula_units_Z   1
loop_
 _symmetry_equiv_pos_site_id
 _symmetry_equiv_pos_as_xyz
  1  'x, y, z'
loop_
 _atom_site_type_symbol
 _atom_site_label
 _atom_site_symmetry_multiplicity
 _atom_site_fract_x
 _atom_site_fract_y
 _atom_site_fract_z
 _atom_site_occupancy
  H  H0  1  0.76870368  0.76870367  0.29978556  1
  H  H1  1  0.44039595  0.44039594  0.61798114  1
  H  H2  1  0.10805687  0.81954232  0.89632628  1
  H  H3  1  0.81954232  0.10805687  0.89632628  1
  Se  Se4  1  0.97804600  0.97804600  0.08751587  1
  Cl  Cl5  1  0.64675517  0.23850005  0.60103243  1
  Cl  Cl6  1  0.23850005  0.64675517  0.60103243  1
