# generated using pymatgen
data_HBr
_symmetry_space_group_name_H-M   'P 1'
_cell_length_a   19.09217090
_cell_length_b   4.77299610
_cell_length_c   5.71523910
_cell_angle_alpha   89.99988359
_cell_angle_beta   90.00000000
_cell_angle_gamma   90.00000000
_symmetry_Int_Tables_number   1
_chemical_formula_structural   HBr
_chemical_formula_sum   'H4 Br4'
_cell_volume   520.81177801
_cell_formula_units_Z   4
loop_
 _symmetry_equiv_pos_site_id
 _symmetry_equiv_pos_as_xyz
  1  'x, y, z'
loop_
 _atom_site_type_symbol
 _atom_site_label
 _atom_site_symmetry_multiplicity
 _atom_site_fract_x
 _atom_site_fract_y
 _atom_site_fract_z
 _atom_site_occupancy
  H  H0  1  0.60716882  0.05193774  0.53013119  1
  H  H1  1  0.39305643  0.94808421  0.53009785  1
  H  H2  1  0.39283118  0.05193774  0.03013119  1
  H  H3  1  0.60694357  0.94808421  0.03009785  1
  Br  Br4  1  0.60713790  0.25461925  0.72526631  1
  Br  Br5  1  0.39336122  0.74535880  0.72520468  1
  Br  Br6  1  0.39286210  0.25461925  0.22526631  1
  Br  Br7  1  0.60663878  0.74535880  0.22520468  1
