# generated using pymatgen
data_Be4H7Br
_symmetry_space_group_name_H-M   'P 1'
_cell_length_a   4.31405189
_cell_length_b   4.73284087
_cell_length_c   11.91384080
_cell_angle_alpha   90.00000000
_cell_angle_beta   90.00000000
_cell_angle_gamma   90.00000000
_symmetry_Int_Tables_number   1
_chemical_formula_structural   Be4H7Br
_chemical_formula_sum   'Be8 H14 Br2'
_cell_volume   243.25347869
_cell_formula_units_Z   2
loop_
 _symmetry_equiv_pos_site_id
 _symmetry_equiv_pos_as_xyz
  1  'x, y, z'
loop_
 _atom_site_type_symbol
 _atom_site_label
 _atom_site_symmetry_multiplicity
 _atom_site_fract_x
 _atom_site_fract_y
 _atom_site_fract_z
 _atom_site_occupancy
  Be  Be0  1  0.73491617  0.49335732  0.90538463  1
  Be  Be1  1  0.02334949  0.83314050  0.24710826  1
  Be  Be2  1  0.52334949  0.16685950  0.25289174  1
  Be  Be3  1  0.23491617  0.50664268  0.59461537  1
  Be  Be4  1  0.23491617  0.50664268  0.40538463  1
  Be  Be5  1  0.73491617  0.49335732  0.09461537  1
  Be  Be6  1  0.02334949  0.83314050  0.75289174  1
  Be  Be7  1  0.52334949  0.16685950  0.74710826  1
  H  H8  1  0.93720641  0.69511390  0.14535240  1
  H  H9  1  0.43720641  0.30488610  0.35464760  1
  H  H10  1  0.50260676  0.37444821  0.83465610  1
  H  H11  1  0.00260676  0.62555179  0.66534390  1
  H  H12  1  0.00260676  0.62555179  0.33465610  1
  H  H13  1  0.50260676  0.37444821  0.16534390  1
  H  H14  1  0.33485933  0.92693105  0.77778873  1
  H  H15  1  0.83485933  0.07306895  0.72221127  1
  H  H16  1  0.83485933  0.07306895  0.27778873  1
  H  H17  1  0.33485933  0.92693105  0.22221127  1
  H  H18  1  0.57855019  0.63238180  0.00000000  1
  H  H19  1  0.07855019  0.36761820  0.50000000  1
  H  H20  1  0.93720641  0.69511390  0.85464760  1
  H  H21  1  0.43720641  0.30488610  0.64535240  1
  Br  Br22  1  0.51040350  0.80586570  0.50000000  1
  Br  Br23  1  0.01040350  0.19413430  0.00000000  1
