# generated using pymatgen
data_PCN(OF)2
_symmetry_space_group_name_H-M   'P 1'
_cell_length_a   9.95667340
_cell_length_b   9.95667340
_cell_length_c   9.95667340
_cell_angle_alpha   93.80996016
_cell_angle_beta   93.80996016
_cell_angle_gamma   150.12397833
_symmetry_Int_Tables_number   1
_chemical_formula_structural   PCN(OF)2
_chemical_formula_sum   'P4 C4 N4 O8 F8'
_cell_volume   475.06216420
_cell_formula_units_Z   4
loop_
 _symmetry_equiv_pos_site_id
 _symmetry_equiv_pos_as_xyz
  1  'x, y, z'
loop_
 _atom_site_type_symbol
 _atom_site_label
 _atom_site_symmetry_multiplicity
 _atom_site_fract_x
 _atom_site_fract_y
 _atom_site_fract_z
 _atom_site_occupancy
  P  P0  1  0.69212825  0.68429182  0.33065118  1
  P  P1  1  0.35364064  0.36147707  0.66934882  1
  P  P2  1  0.63852293  0.30787175  0.99216357  1
  P  P3  1  0.31570818  0.64635936  0.00783643  1
  C  C4  1  0.85680859  0.60684392  0.46251722  1
  C  C5  1  0.14432670  0.39429137  0.53748278  1
  C  C6  1  0.60570863  0.14319141  0.75003533  1
  C  C7  1  0.39315608  0.85567330  0.24996467  1
  N  N8  1  0.76533780  0.59146495  0.36076256  1
  N  N9  1  0.23070239  0.40457524  0.63923744  1
  N  N10  1  0.59542476  0.23466220  0.82612715  1
  N  N11  1  0.40853505  0.76929761  0.17387285  1
  O  O12  1  0.94093750  0.60945658  0.55269077  1
  O  O13  1  0.05676581  0.38824673  0.44730923  1
  O  O14  1  0.61175327  0.05906250  0.66851908  1
  O  O15  1  0.39054342  0.94323419  0.33148092  1
  O  O16  1  0.64816404  0.74082851  0.44174445  1
  O  O17  1  0.29908406  0.20641959  0.55825555  1
  O  O18  1  0.79358041  0.35183596  0.09266447  1
  O  O19  1  0.25917149  0.70091594  0.90733553  1
  F  F20  1  0.44012812  0.44924179  0.20068828  1
  F  F21  1  0.24855351  0.23943984  0.79931172  1
  F  F22  1  0.76056016  0.55987188  0.00911367  1
  F  F23  1  0.55075821  0.75144649  0.99088633  1
  F  F24  1  0.92019168  0.92717787  0.25937125  1
  F  F25  1  0.66780662  0.66082043  0.74062875  1
  F  F26  1  0.33917957  0.07980832  0.00698619  1
  F  F27  1  0.07282213  0.33219338  0.99301381  1
