# generated using pymatgen
data_BClO
_symmetry_space_group_name_H-M   'P 1'
_cell_length_a   4.51910565
_cell_length_b   8.51819688
_cell_length_c   19.07211645
_cell_angle_alpha   90.00000000
_cell_angle_beta   90.00000000
_cell_angle_gamma   90.00000000
_symmetry_Int_Tables_number   1
_chemical_formula_structural   BClO
_chemical_formula_sum   'B4 Cl4 O4'
_cell_volume   734.17409749
_cell_formula_units_Z   4
loop_
 _symmetry_equiv_pos_site_id
 _symmetry_equiv_pos_as_xyz
  1  'x, y, z'
loop_
 _atom_site_type_symbol
 _atom_site_label
 _atom_site_symmetry_multiplicity
 _atom_site_fract_x
 _atom_site_fract_y
 _atom_site_fract_z
 _atom_site_occupancy
  B  B0  1  0.66931438  0.22161804  0.52929786  1
  B  B1  1  0.33068562  0.72161804  0.47070214  1
  B  B2  1  0.16931438  0.22161804  0.47070214  1
  B  B3  1  0.83068562  0.72161804  0.52929786  1
  Cl  Cl4  1  0.74027026  0.61879853  0.60675576  1
  Cl  Cl5  1  0.25972974  0.11879853  0.39324424  1
  Cl  Cl6  1  0.24027026  0.61879853  0.39324424  1
  Cl  Cl7  1  0.75972974  0.11879853  0.60675576  1
  O  O8  1  0.12295217  0.76012343  0.51902051  1
  O  O9  1  0.87704783  0.26012343  0.48097949  1
  O  O10  1  0.62295217  0.76012343  0.48097949  1
  O  O11  1  0.37704783  0.26012343  0.51902051  1
