# generated using pymatgen
data_NbTl(BO3)2
_symmetry_space_group_name_H-M   'P 1'
_cell_length_a   7.82000000
_cell_length_b   7.40000000
_cell_length_c   9.46000000
_cell_angle_alpha   90.00000000
_cell_angle_beta   90.00000000
_cell_angle_gamma   90.00000000
_symmetry_Int_Tables_number   1
_chemical_formula_structural   NbTl(BO3)2
_chemical_formula_sum   'Nb4 Tl4 B8 O24'
_cell_volume   547.43128000
_cell_formula_units_Z   4
loop_
 _symmetry_equiv_pos_site_id
 _symmetry_equiv_pos_as_xyz
  1  'x, y, z'
loop_
 _atom_site_type_symbol
 _atom_site_label
 _atom_site_symmetry_multiplicity
 _atom_site_fract_x
 _atom_site_fract_y
 _atom_site_fract_z
 _atom_site_occupancy
  Nb  Nb0  1  0.83830000  0.24020000  0.13480000  1.0
  Nb  Nb1  1  0.66170000  0.74020000  0.63480000  1.0
  Nb  Nb2  1  0.16170000  0.75980000  0.63480000  1.0
  Nb  Nb3  1  0.33830000  0.25980000  0.13480000  1.0
  Tl  Tl4  1  0.99920000  0.25670000  0.75000000  1.0
  Tl  Tl5  1  0.50080000  0.75670000  0.25000000  1.0
  Tl  Tl6  1  0.00080000  0.74330000  0.25000000  1.0
  Tl  Tl7  1  0.49920000  0.24330000  0.75000000  1.0
  B  B8  1  0.21200000  0.41100000  0.41900000  1.0
  B  B9  1  0.26600000  0.08900000  0.42500000  1.0
  B  B10  1  0.73400000  0.91100000  0.92500000  1.0
  B  B11  1  0.76600000  0.41100000  0.42500000  1.0
  B  B12  1  0.71200000  0.08900000  0.41900000  1.0
  B  B13  1  0.78800000  0.58900000  0.91900000  1.0
  B  B14  1  0.28800000  0.91100000  0.91900000  1.0
  B  B15  1  0.23400000  0.58900000  0.92500000  1.0
  O  O16  1  0.85600000  0.44100000  0.99400000  1.0
  O  O17  1  0.44200000  0.69200000  0.63900000  1.0
  O  O18  1  0.34400000  0.08600000  0.29800000  1.0
  O  O19  1  0.15600000  0.58600000  0.79800000  1.0
  O  O20  1  0.21200000  0.25300000  0.48500000  1.0
  O  O21  1  0.35600000  0.05900000  0.99400000  1.0
  O  O22  1  0.77000000  0.06600000  0.28500000  1.0
  O  O23  1  0.78800000  0.74700000  0.98500000  1.0
  O  O24  1  0.27200000  0.43900000  0.99000000  1.0
  O  O25  1  0.27000000  0.43400000  0.28500000  1.0
  O  O26  1  0.77200000  0.06100000  0.99000000  1.0
  O  O27  1  0.84400000  0.41400000  0.29800000  1.0
  O  O28  1  0.23000000  0.93400000  0.78500000  1.0
  O  O29  1  0.64400000  0.94100000  0.49400000  1.0
  O  O30  1  0.22800000  0.93900000  0.49000000  1.0
  O  O31  1  0.05800000  0.19200000  0.13900000  1.0
  O  O32  1  0.94200000  0.80800000  0.63900000  1.0
  O  O33  1  0.55800000  0.30800000  0.13900000  1.0
  O  O34  1  0.73000000  0.56600000  0.78500000  1.0
  O  O35  1  0.28800000  0.75300000  0.98500000  1.0
  O  O36  1  0.72800000  0.56100000  0.49000000  1.0
  O  O37  1  0.71200000  0.24700000  0.48500000  1.0
  O  O38  1  0.14400000  0.55900000  0.49400000  1.0
  O  O39  1  0.65600000  0.91400000  0.79800000  1.0
