# generated using pymatgen
data_BeHCl
_symmetry_space_group_name_H-M   'P 1'
_cell_length_a   4.30860000
_cell_length_b   5.86956000
_cell_length_c   5.95645000
_cell_angle_alpha   60.54916997
_cell_angle_beta   69.27350999
_cell_angle_gamma   69.02470999
_symmetry_Int_Tables_number   1
_chemical_formula_structural   BeHCl
_chemical_formula_sum   'Be2 H2 Cl2'
_cell_volume   119.51080938
_cell_formula_units_Z   2
loop_
 _symmetry_equiv_pos_site_id
 _symmetry_equiv_pos_as_xyz
  1  'x, y, z'
loop_
 _atom_site_type_symbol
 _atom_site_label
 _atom_site_symmetry_multiplicity
 _atom_site_fract_x
 _atom_site_fract_y
 _atom_site_fract_z
 _atom_site_occupancy
  Be  Be0  1  0.21444000  0.79443000  0.79231000  1
  Be  Be1  1  0.71429000  0.79453000  0.79222000  1
  H  H2  1  0.39137000  0.98916000  0.74738000  1
  H  H3  1  0.87250000  0.81432000  0.96025000  1
  Cl  Cl4  1  0.55321000  0.45267000  0.95150000  1
  Cl  Cl5  1  0.09688000  0.84876000  0.46743000  1
