# generated using pymatgen
data_B2S2O9
_symmetry_space_group_name_H-M   'P 1'
_cell_length_a   4.41575115
_cell_length_b   4.41575115
_cell_length_c   8.68940770
_cell_angle_alpha   85.83104109
_cell_angle_beta   85.83104109
_cell_angle_gamma   56.46387374
_symmetry_Int_Tables_number   1
_chemical_formula_structural   B2S2O9
_chemical_formula_sum   'B2 S2 O9'
_cell_volume   140.74762343
_cell_formula_units_Z   1
loop_
 _symmetry_equiv_pos_site_id
 _symmetry_equiv_pos_as_xyz
  1  'x, y, z'
loop_
 _atom_site_type_symbol
 _atom_site_label
 _atom_site_symmetry_multiplicity
 _atom_site_fract_x
 _atom_site_fract_y
 _atom_site_fract_z
 _atom_site_occupancy
  B  B0  1  0.82342014  0.18097010  0.14346253  1
  B  B1  1  0.81902990  0.17657986  0.85653747  1
  S  S2  1  0.49111943  0.84569337  0.26554016  1
  S  S3  1  0.15430663  0.50888057  0.73445984  1
  O  O4  1  0.63518210  0.70295490  0.41096664  1
  O  O5  1  0.29704510  0.36481790  0.58903336  1
  O  O6  1  0.49919109  0.16894033  0.20422512  1
  O  O7  1  0.83105967  0.50080891  0.79577488  1
  O  O8  1  0.68523504  0.57726230  0.13808174  1
  O  O9  1  0.42273770  0.31476496  0.86191826  1
  O  O10  1  0.09533285  0.98179458  0.26688951  1
  O  O11  1  0.01820542  0.90466715  0.73311049  1
  O  O12  1  0.96135594  0.03864406  0.00000000  1
