# generated using pymatgen
data_CaY2F8
_symmetry_space_group_name_H-M   'P 1'
_cell_length_a   6.16689991
_cell_length_b   6.16689991
_cell_length_c   4.31040142
_cell_angle_alpha   81.85351692
_cell_angle_beta   81.85351692
_cell_angle_gamma   111.39161942
_symmetry_Int_Tables_number   1
_chemical_formula_structural   CaY2F8
_chemical_formula_sum   'Ca1 Y2 F8'
_cell_volume   147.73086281
_cell_formula_units_Z   1
loop_
 _symmetry_equiv_pos_site_id
 _symmetry_equiv_pos_as_xyz
  1  'x, y, z'
loop_
 _atom_site_type_symbol
 _atom_site_label
 _atom_site_symmetry_multiplicity
 _atom_site_fract_x
 _atom_site_fract_y
 _atom_site_fract_z
 _atom_site_occupancy
  Ca  Ca0  1  0.98628716  0.98628716  0.86528726  1
  Y  Y1  1  0.32036744  0.68128870  0.50275811  1
  Y  Y2  1  0.68128870  0.32036744  0.50275811  1
  F  F3  1  0.66660504  0.93778814  0.60311803  1
  F  F4  1  0.93778814  0.66660504  0.60311803  1
  F  F5  1  0.63675599  0.63675599  0.20567836  1
  F  F6  1  0.75562757  0.22675467  0.01188502  1
  F  F7  1  0.22675467  0.75562757  0.01188502  1
  F  F8  1  0.37590894  0.37590894  0.79780309  1
  F  F9  1  0.05505219  0.32362416  0.44785299  1
  F  F10  1  0.32362416  0.05505219  0.44785299  1
