# generated using pymatgen
data_GaPS4
_symmetry_space_group_name_H-M   'P 1'
_cell_length_a   5.97235997
_cell_length_b   5.97235997
_cell_length_c   5.97235997
_cell_angle_alpha   123.44006540
_cell_angle_beta   123.44006540
_cell_angle_gamma   84.13823142
_symmetry_Int_Tables_number   1
_chemical_formula_structural   GaPS4
_chemical_formula_sum   'Ga1 P1 S4'
_cell_volume   141.98849324
_cell_formula_units_Z   1
loop_
 _symmetry_equiv_pos_site_id
 _symmetry_equiv_pos_as_xyz
  1  'x, y, z'
loop_
 _atom_site_type_symbol
 _atom_site_label
 _atom_site_symmetry_multiplicity
 _atom_site_fract_x
 _atom_site_fract_y
 _atom_site_fract_z
 _atom_site_occupancy
  Ga  Ga0  1  0.50000000  0.50000000  1.00000000  1
  P  P1  1  0.25000000  0.75000000  0.50000000  1
  S  S2  1  0.34858681  0.84992595  0.94034365  1
  S  S3  1  0.90958230  0.40824316  0.05965635  1
  S  S4  1  0.15007405  0.09041770  0.49866086  1
  S  S5  1  0.59175684  0.65141319  0.50133914  1
