# generated using pymatgen
data_NaCdPS4
_symmetry_space_group_name_H-M   'P 1'
_cell_length_a   6.42817989
_cell_length_b   6.42840601
_cell_length_c   6.49516364
_cell_angle_alpha   119.64707084
_cell_angle_beta   119.65929026
_cell_angle_gamma   90.00674404
_symmetry_Int_Tables_number   1
_chemical_formula_structural   NaCdPS4
_chemical_formula_sum   'Na1 Cd1 P1 S4'
_cell_volume   191.74869305
_cell_formula_units_Z   1
loop_
 _symmetry_equiv_pos_site_id
 _symmetry_equiv_pos_as_xyz
  1  'x, y, z'
loop_
 _atom_site_type_symbol
 _atom_site_label
 _atom_site_symmetry_multiplicity
 _atom_site_fract_x
 _atom_site_fract_y
 _atom_site_fract_z
 _atom_site_occupancy
  Na  Na0  1  0.50001148  0.50014719  0.00006667  1
  Cd  Cd1  1  0.00001583  0.99997872  0.00001555  1
  P  P2  1  0.74998133  0.24998282  0.49999491  1
  S  S3  1  0.04474709  0.15118987  0.71942729  1
  S  S4  1  0.43175970  0.95533274  0.28081082  1
  S  S5  1  0.84870580  0.32517212  0.28042430  1
  S  S6  1  0.67466777  0.56820554  0.71929246  1
