# generated using pymatgen
data_Na2BeSiS4
_symmetry_space_group_name_H-M   'P 1'
_cell_length_a   6.11784488
_cell_length_b   6.11784488
_cell_length_c   6.17531402
_cell_angle_alpha   59.70368552
_cell_angle_beta   59.70368552
_cell_angle_gamma   88.94278204
_symmetry_Int_Tables_number   1
_chemical_formula_structural   Na2BeSiS4
_chemical_formula_sum   'Na2 Be1 Si1 S4'
_cell_volume   163.44434344
_cell_formula_units_Z   1
loop_
 _symmetry_equiv_pos_site_id
 _symmetry_equiv_pos_as_xyz
  1  'x, y, z'
loop_
 _atom_site_type_symbol
 _atom_site_label
 _atom_site_symmetry_multiplicity
 _atom_site_fract_x
 _atom_site_fract_y
 _atom_site_fract_z
 _atom_site_occupancy
  Na  Na0  1  0.48574567  0.51425433  0.50000000  1
  Na  Na1  1  0.23567264  0.76432736  0.00000000  1
  Be  Be2  1  0.98588655  0.01411345  0.50000000  1
  Si  Si3  1  0.73592127  0.26407873  0.00000000  1
  S  S4  1  0.70259019  0.96915381  0.91689530  1
  S  S5  1  0.85239477  0.64199477  0.58871038  1
  S  S6  1  0.35800523  0.14760523  0.41128962  1
  S  S7  1  0.03084619  0.29740981  0.08310470  1
