# generated using pymatgen
data_Ca4P2O9
_symmetry_space_group_name_H-M   'P 1'
_cell_length_a   7.02300000
_cell_length_b   11.98600000
_cell_length_c   9.47300000
_cell_angle_alpha   90.00000000
_cell_angle_beta   90.00000000
_cell_angle_gamma   90.00000000
_symmetry_Int_Tables_number   1
_chemical_formula_structural   Ca4P2O9
_chemical_formula_sum   'Ca16 P8 O36'
_cell_volume   797.41514369
_cell_formula_units_Z   4
loop_
 _symmetry_equiv_pos_site_id
 _symmetry_equiv_pos_as_xyz
  1  'x, y, z'
loop_
 _atom_site_type_symbol
 _atom_site_label
 _atom_site_symmetry_multiplicity
 _atom_site_fract_x
 _atom_site_fract_y
 _atom_site_fract_z
 _atom_site_occupancy
  Ca  Ca0  1  0.25124000  0.57842000  0.01020000  1.0
  Ca  Ca1  1  0.48679000  0.05225000  0.41033000  1.0
  Ca  Ca2  1  0.98997000  0.56827000  0.63431000  1.0
  Ca  Ca3  1  0.01003000  0.06827000  0.36569000  1.0
  Ca  Ca4  1  0.51321000  0.55225000  0.58967000  1.0
  Ca  Ca5  1  0.74876000  0.07842000  0.98980000  1.0
  Ca  Ca6  1  0.74235000  0.60865000  0.25339000  1.0
  Ca  Ca7  1  0.25765000  0.10865000  0.74661000  1.0
  Ca  Ca8  1  0.26928000  0.79958000  0.25319000  1.0
  Ca  Ca9  1  0.73072000  0.29958000  0.74681000  1.0
  Ca  Ca10  1  0.76779000  0.80400000  0.53484000  1.0
  Ca  Ca11  1  0.23221000  0.30400000  0.46516000  1.0
  Ca  Ca12  1  0.53208000  0.79963000  0.89367000  1.0
  Ca  Ca13  1  0.46792000  0.29963000  0.10633000  1.0
  Ca  Ca14  1  0.03135000  0.84484000  0.89371000  1.0
  Ca  Ca15  1  0.96865000  0.34484000  0.10629000  1.0
  P  P16  1  0.23427000  0.39035000  0.78461000  1.0
  P  P17  1  0.76573000  0.89035000  0.21539000  1.0
  P  P18  1  0.71036000  0.32559000  0.37586000  1.0
  P  P19  1  0.28964000  0.82559000  0.62414000  1.0
  P  P20  1  0.76331000  0.04086000  0.68332000  1.0
  P  P21  1  0.23669000  0.54086000  0.31668000  1.0
  P  P22  1  0.23677000  0.07675000  0.08977000  1.0
  P  P23  1  0.76323000  0.57675000  0.91023000  1.0
  O  O24  1  0.71748000  0.49687000  0.78546000  1.0
  O  O25  1  0.16697000  0.18754000  0.15997000  1.0
  O  O26  1  0.58489000  0.60221000  0.00048000  1.0
  O  O27  1  0.41511000  0.10221000  0.99952000  1.0
  O  O28  1  0.24497000  0.43066000  0.22751000  1.0
  O  O29  1  0.75503000  0.93066000  0.77249000  1.0
  O  O30  1  0.42032000  0.60987000  0.30057000  1.0
  O  O31  1  0.57968000  0.10987000  0.69943000  1.0
  O  O32  1  0.76686000  0.62650000  0.48793000  1.0
  O  O33  1  0.23314000  0.12650000  0.51207000  1.0
  O  O34  1  0.26471000  0.76375000  0.01636000  1.0
  O  O35  1  0.73529000  0.26375000  0.98364000  1.0
  O  O36  1  0.92102000  0.53030000  0.01000000  1.0
  O  O37  1  0.07898000  0.03030000  0.99000000  1.0
  O  O38  1  0.83303000  0.68754000  0.84003000  1.0
  O  O39  1  0.95391000  0.86288000  0.29568000  1.0
  O  O40  1  0.26985000  0.51977000  0.77242000  1.0
  O  O41  1  0.73015000  0.01977000  0.22758000  1.0
  O  O42  1  0.39171000  0.32156000  0.71305000  1.0
  O  O43  1  0.60829000  0.82156000  0.28695000  1.0
  O  O44  1  0.04609000  0.36288000  0.70432000  1.0
  O  O45  1  0.07538000  0.61672000  0.26134000  1.0
  O  O46  1  0.22985000  0.36447000  0.94490000  1.0
  O  O47  1  0.77015000  0.86447000  0.05510000  1.0
  O  O48  1  0.71084000  0.41086000  0.25035000  1.0
  O  O49  1  0.28916000  0.91086000  0.74965000  1.0
  O  O50  1  0.90579000  0.26407000  0.37553000  1.0
  O  O51  1  0.09421000  0.76407000  0.62447000  1.0
  O  O52  1  0.54253000  0.24245000  0.34219000  1.0
  O  O53  1  0.45747000  0.74245000  0.65781000  1.0
  O  O54  1  0.67127000  0.38221000  0.51779000  1.0
  O  O55  1  0.32873000  0.88221000  0.48221000  1.0
  O  O56  1  0.78345000  0.00430000  0.52640000  1.0
  O  O57  1  0.21655000  0.50430000  0.47360000  1.0
  O  O58  1  0.92462000  0.11672000  0.73866000  1.0
  O  O59  1  0.28252000  0.99687000  0.21454000  1.0
