# generated using pymatgen
data_CF4
_symmetry_space_group_name_H-M   'P 1'
_cell_length_a   4.55986985
_cell_length_b   4.97418228
_cell_length_c   19.74533540
_cell_angle_alpha   90.00000000
_cell_angle_beta   90.00000000
_cell_angle_gamma   90.00000000
_symmetry_Int_Tables_number   1
_chemical_formula_structural   CF4
_chemical_formula_sum   'C2 F8'
_cell_volume   447.85626949
_cell_formula_units_Z   2
loop_
 _symmetry_equiv_pos_site_id
 _symmetry_equiv_pos_as_xyz
  1  'x, y, z'
loop_
 _atom_site_type_symbol
 _atom_site_label
 _atom_site_symmetry_multiplicity
 _atom_site_fract_x
 _atom_site_fract_y
 _atom_site_fract_z
 _atom_site_occupancy
  C  C0  1  0.10057862  0.50000000  0.58855108  1
  C  C1  1  0.59888431  0.00000000  0.41146091  1
  F  F2  1  0.99846575  0.72013611  0.62023447  1
  F  F3  1  0.99846575  0.27986389  0.62023447  1
  F  F4  1  0.49593761  0.22011285  0.37990818  1
  F  F5  1  0.49593761  0.77988715  0.37990818  1
  F  F6  1  0.01137340  0.50000000  0.52375933  1
  F  F7  1  0.51142902  0.00000000  0.47637807  1
  F  F8  1  0.89358348  0.00000000  0.40885490  1
  F  F9  1  0.39534545  0.50000000  0.59070908  1
