# generated using pymatgen
data_Si2HN3
_symmetry_space_group_name_H-M   'P 1'
_cell_length_a   5.38089445
_cell_length_b   5.38089445
_cell_length_c   4.85661843
_cell_angle_alpha   90.00000000
_cell_angle_beta   90.00000000
_cell_angle_gamma   118.98656912
_symmetry_Int_Tables_number   1
_chemical_formula_structural   Si2HN3
_chemical_formula_sum   'Si4 H2 N6'
_cell_volume   123.00382122
_cell_formula_units_Z   2
loop_
 _symmetry_equiv_pos_site_id
 _symmetry_equiv_pos_as_xyz
  1  'x, y, z'
loop_
 _atom_site_type_symbol
 _atom_site_label
 _atom_site_symmetry_multiplicity
 _atom_site_fract_x
 _atom_site_fract_y
 _atom_site_fract_z
 _atom_site_occupancy
  Si  Si0  1  0.33292115  0.98386902  0.03300637  1
  Si  Si1  1  0.66707885  0.01613098  0.53300637  1
  Si  Si2  1  0.01613098  0.66707885  0.53300637  1
  Si  Si3  1  0.98386902  0.33292115  0.03300637  1
  H  H4  1  0.40071125  0.40071125  0.83224809  1
  H  H5  1  0.59928875  0.59928875  0.33224809  1
  N  N6  1  0.33616098  0.91322111  0.38229885  1
  N  N7  1  0.66383902  0.08677889  0.88229885  1
  N  N8  1  0.08677889  0.66383902  0.88229885  1
  N  N9  1  0.91322111  0.33616098  0.38229885  1
  N  N10  1  0.74355318  0.74355318  0.46714150  1
  N  N11  1  0.25644682  0.25644682  0.96714150  1
