# generated using pymatgen
data_BeIBr
_symmetry_space_group_name_H-M   'P 1'
_cell_length_a   7.94428903
_cell_length_b   7.94428903
_cell_length_c   17.54111555
_cell_angle_alpha   90.00000000
_cell_angle_beta   90.00000000
_cell_angle_gamma   42.95011733
_symmetry_Int_Tables_number   1
_chemical_formula_structural   BeIBr
_chemical_formula_sum   'Be2 I2 Br2'
_cell_volume   754.30118766
_cell_formula_units_Z   2
loop_
 _symmetry_equiv_pos_site_id
 _symmetry_equiv_pos_as_xyz
  1  'x, y, z'
loop_
 _atom_site_type_symbol
 _atom_site_label
 _atom_site_symmetry_multiplicity
 _atom_site_fract_x
 _atom_site_fract_y
 _atom_site_fract_z
 _atom_site_occupancy
  Be  Be0  1  0.81177456  0.68802459  0.49776788  1
  Be  Be1  1  0.31197541  0.18822544  0.49776788  1
  I  I2  1  0.46607513  0.84180522  0.57354918  1
  I  I3  1  0.15819478  0.53392487  0.57354918  1
  Br  Br4  1  0.63812068  0.01354073  0.42868294  1
  Br  Br5  1  0.98645927  0.36187932  0.42868294  1
