# generated using pymatgen
data_H3F2
_symmetry_space_group_name_H-M   'P 1'
_cell_length_a   4.08332769
_cell_length_b   4.09853142
_cell_length_c   6.62382273
_cell_angle_alpha   82.19985560
_cell_angle_beta   81.12974730
_cell_angle_gamma   77.72861946
_symmetry_Int_Tables_number   1
_chemical_formula_structural   H3F2
_chemical_formula_sum   'H6 F4'
_cell_volume   106.41549380
_cell_formula_units_Z   2
loop_
 _symmetry_equiv_pos_site_id
 _symmetry_equiv_pos_as_xyz
  1  'x, y, z'
loop_
 _atom_site_type_symbol
 _atom_site_label
 _atom_site_symmetry_multiplicity
 _atom_site_fract_x
 _atom_site_fract_y
 _atom_site_fract_z
 _atom_site_occupancy
  H  H0  1  0.87117558  0.39866605  0.20122961  1
  H  H1  1  0.82483068  0.90366024  0.21858181  1
  H  H2  1  0.28332422  0.62701277  0.47129688  1
  H  H3  1  0.37382704  0.71753907  0.52934994  1
  H  H4  1  0.09214355  0.17911256  0.78101563  1
  H  H5  1  0.59659619  0.13359266  0.79898261  1
  F  F6  1  0.98760422  0.59610503  0.15649485  1
  F  F7  1  0.70893999  0.13239549  0.26072117  1
  F  F8  1  0.86458909  0.29333448  0.73816411  1
  F  F9  1  0.39698344  0.01857464  0.84415439  1
