# generated using pymatgen
data_BF3
_symmetry_space_group_name_H-M   'P 1'
_cell_length_a   4.99499661
_cell_length_b   11.11211674
_cell_length_c   18.20712987
_cell_angle_alpha   90.00000000
_cell_angle_beta   90.00000000
_cell_angle_gamma   91.22161382
_symmetry_Int_Tables_number   1
_chemical_formula_structural   BF3
_chemical_formula_sum   'B4 F12'
_cell_volume   1010.35678388
_cell_formula_units_Z   4
loop_
 _symmetry_equiv_pos_site_id
 _symmetry_equiv_pos_as_xyz
  1  'x, y, z'
loop_
 _atom_site_type_symbol
 _atom_site_label
 _atom_site_symmetry_multiplicity
 _atom_site_fract_x
 _atom_site_fract_y
 _atom_site_fract_z
 _atom_site_occupancy
  B  B0  1  0.25269654  0.81213690  0.50210012  1
  B  B1  1  0.74748407  0.06329919  0.51780777  1
  B  B2  1  0.25401025  0.31219653  0.49790026  1
  B  B3  1  0.74714236  0.56297749  0.48219674  1
  F  F4  1  0.30586265  0.81318840  0.43098037  1
  F  F5  1  0.79014648  0.08665015  0.58807585  1
  F  F6  1  0.30776245  0.31336081  0.56898259  1
  F  F7  1  0.79000307  0.58630028  0.41192893  1
  F  F8  1  0.05080627  0.24545592  0.47152297  1
  F  F9  1  0.40181017  0.87774031  0.54855202  1
  F  F10  1  0.04966515  0.74543743  0.52861860  1
  F  F11  1  0.40260152  0.37781929  0.45133194  1
  F  F12  1  0.90318030  0.98726928  0.48173844  1
  F  F13  1  0.54717444  0.11471427  0.48191675  1
  F  F14  1  0.54658715  0.61433011  0.51801428  1
  F  F15  1  0.90306716  0.48712364  0.51833237  1
