# generated using pymatgen
data_CdH4(BrO4)2
_symmetry_space_group_name_H-M   'P 1'
_cell_length_a   6.17020000
_cell_length_b   9.23820000
_cell_length_c   12.49250000
_cell_angle_alpha   90.00000000
_cell_angle_beta   90.00000000
_cell_angle_gamma   90.00000000
_symmetry_Int_Tables_number   1
_chemical_formula_structural   CdH4(BrO4)2
_chemical_formula_sum   'Cd4 H16 Br8 O32'
_cell_volume   712.09175894
_cell_formula_units_Z   4
loop_
 _symmetry_equiv_pos_site_id
 _symmetry_equiv_pos_as_xyz
  1  'x, y, z'
loop_
 _atom_site_type_symbol
 _atom_site_label
 _atom_site_symmetry_multiplicity
 _atom_site_fract_x
 _atom_site_fract_y
 _atom_site_fract_z
 _atom_site_occupancy
  Cd  Cd0  1  0.43530000  0.42910000  0.78230000  1.0
  Cd  Cd1  1  0.93530000  0.07090000  0.21770000  1.0
  Cd  Cd2  1  0.56470000  0.92910000  0.71770000  1.0
  Cd  Cd3  1  0.06470000  0.57090000  0.28230000  1.0
  H  H4  1  0.24100000  0.08800000  0.07300000  1.0
  H  H5  1  0.74100000  0.41200000  0.92700000  1.0
  H  H6  1  0.75900000  0.58800000  0.42700000  1.0
  H  H7  1  0.25900000  0.91200000  0.57300000  1.0
  H  H8  1  0.33300000  0.93500000  0.06200000  1.0
  H  H9  1  0.83300000  0.56500000  0.93800000  1.0
  H  H10  1  0.66700000  0.43500000  0.43800000  1.0
  H  H11  1  0.16700000  0.06500000  0.56200000  1.0
  H  H12  1  0.71000000  0.99700000  0.94700000  1.0
  H  H13  1  0.79000000  0.00300000  0.44700000  1.0
  H  H14  1  0.29000000  0.49700000  0.55300000  1.0
  H  H15  1  0.21000000  0.50300000  0.05300000  1.0
  H  H16  1  0.38800000  0.48800000  0.14200000  1.0
  H  H17  1  0.61200000  0.98800000  0.35800000  1.0
  H  H18  1  0.88800000  0.01200000  0.85800000  1.0
  H  H19  1  0.11200000  0.51200000  0.64200000  1.0
  Br  Br20  1  0.17460000  0.15930000  0.88370000  1.0
  Br  Br21  1  0.67460000  0.34070000  0.11630000  1.0
  Br  Br22  1  0.82540000  0.65930000  0.61630000  1.0
  Br  Br23  1  0.32540000  0.84070000  0.38370000  1.0
  Br  Br24  1  0.21810000  0.71920000  0.88680000  1.0
  Br  Br25  1  0.71810000  0.78080000  0.11320000  1.0
  Br  Br26  1  0.78190000  0.21920000  0.61320000  1.0
  Br  Br27  1  0.28190000  0.28080000  0.38680000  1.0
  O  O28  1  0.93040000  0.77910000  0.19970000  1.0
  O  O29  1  0.67680000  0.24450000  0.49360000  1.0
  O  O30  1  0.82320000  0.75550000  0.99360000  1.0
  O  O31  1  0.32320000  0.74450000  0.00640000  1.0
  O  O32  1  0.56960000  0.22090000  0.69970000  1.0
  O  O33  1  0.06960000  0.27910000  0.30030000  1.0
  O  O34  1  0.43040000  0.72090000  0.80030000  1.0
  O  O35  1  0.17680000  0.25550000  0.50640000  1.0
  O  O36  1  0.39560000  0.73560000  0.28200000  1.0
  O  O37  1  0.89560000  0.76440000  0.71800000  1.0
  O  O38  1  0.60440000  0.23560000  0.21800000  1.0
  O  O39  1  0.10440000  0.26440000  0.78200000  1.0
  O  O40  1  0.74750000  0.50560000  0.66870000  1.0
  O  O41  1  0.24750000  0.99440000  0.33130000  1.0
  O  O42  1  0.17000000  0.53940000  0.88760000  1.0
  O  O43  1  0.75250000  0.49440000  0.16870000  1.0
  O  O44  1  0.09500000  0.76170000  0.42390000  1.0
  O  O45  1  0.59500000  0.73830000  0.57610000  1.0
  O  O46  1  0.90500000  0.26170000  0.07610000  1.0
  O  O47  1  0.40500000  0.23830000  0.92390000  1.0
  O  O48  1  0.22570000  0.48790000  0.12710000  1.0
  O  O49  1  0.72570000  0.01210000  0.87290000  1.0
  O  O50  1  0.77430000  0.98790000  0.37290000  1.0
  O  O51  1  0.27430000  0.51210000  0.62710000  1.0
  O  O52  1  0.79470000  0.51630000  0.40280000  1.0
  O  O53  1  0.29470000  0.98370000  0.59720000  1.0
  O  O54  1  0.20530000  0.01630000  0.09720000  1.0
  O  O55  1  0.70530000  0.48370000  0.90280000  1.0
  O  O56  1  0.67000000  0.96060000  0.11240000  1.0
  O  O57  1  0.25250000  0.00560000  0.83130000  1.0
  O  O58  1  0.33000000  0.46060000  0.38760000  1.0
  O  O59  1  0.83000000  0.03940000  0.61240000  1.0
