# generated using pymatgen
data_H3SCl
_symmetry_space_group_name_H-M   'P 1'
_cell_length_a   4.75488418
_cell_length_b   4.75488418
_cell_length_c   4.75488418
_cell_angle_alpha   65.36086572
_cell_angle_beta   65.36086572
_cell_angle_gamma   65.36086572
_symmetry_Int_Tables_number   1
_chemical_formula_structural   H3SCl
_chemical_formula_sum   'H3 S1 Cl1'
_cell_volume   84.88637314
_cell_formula_units_Z   1
loop_
 _symmetry_equiv_pos_site_id
 _symmetry_equiv_pos_as_xyz
  1  'x, y, z'
loop_
 _atom_site_type_symbol
 _atom_site_label
 _atom_site_symmetry_multiplicity
 _atom_site_fract_x
 _atom_site_fract_y
 _atom_site_fract_z
 _atom_site_occupancy
  H  H0  1  0.25249045  0.25249045  0.84756361  1
  H  H1  1  0.25249045  0.84756361  0.25249045  1
  H  H2  1  0.84756361  0.25249045  0.25249045  1
  S  S3  1  0.05030564  0.05030564  0.05030564  1
  Cl  Cl4  1  0.54014986  0.54014986  0.54014986  1
