# generated using pymatgen
data_HBr
_symmetry_space_group_name_H-M   'P 1'
_cell_length_a   5.29961666
_cell_length_b   5.32476542
_cell_length_c   18.94761841
_cell_angle_alpha   90.00000000
_cell_angle_beta   90.00000000
_cell_angle_gamma   90.00000000
_symmetry_Int_Tables_number   1
_chemical_formula_structural   HBr
_chemical_formula_sum   'H4 Br4'
_cell_volume   534.68692770
_cell_formula_units_Z   4
loop_
 _symmetry_equiv_pos_site_id
 _symmetry_equiv_pos_as_xyz
  1  'x, y, z'
loop_
 _atom_site_type_symbol
 _atom_site_label
 _atom_site_symmetry_multiplicity
 _atom_site_fract_x
 _atom_site_fract_y
 _atom_site_fract_z
 _atom_site_occupancy
  H  H0  1  0.54960363  0.46817151  0.39636866  1
  H  H1  1  0.95065561  0.97130639  0.60359543  1
  H  H2  1  0.04934438  0.47130639  0.60359543  1
  H  H3  1  0.45039638  0.96817151  0.39636866  1
  Br  Br4  1  0.74596449  0.27074512  0.39584704  1
  Br  Br5  1  0.25403551  0.77074512  0.39584704  1
  Br  Br6  1  0.75414596  0.77403465  0.60418965  1
  Br  Br7  1  0.24585403  0.27403465  0.60418965  1
