# generated using pymatgen
data_PHN2
_symmetry_space_group_name_H-M   'P 1'
_cell_length_a   4.88742572
_cell_length_b   4.88742572
_cell_length_c   4.88742572
_cell_angle_alpha   121.40426763
_cell_angle_beta   121.10770025
_cell_angle_gamma   87.83819816
_symmetry_Int_Tables_number   1
_chemical_formula_structural   PHN2
_chemical_formula_sum   'P2 H2 N4'
_cell_volume   80.92115721
_cell_formula_units_Z   2
loop_
 _symmetry_equiv_pos_site_id
 _symmetry_equiv_pos_as_xyz
  1  'x, y, z'
loop_
 _atom_site_type_symbol
 _atom_site_label
 _atom_site_symmetry_multiplicity
 _atom_site_fract_x
 _atom_site_fract_y
 _atom_site_fract_z
 _atom_site_occupancy
  P  P0  1  0.63533911  0.88533911  0.75000000  1
  P  P1  1  0.86466089  0.61466089  0.25000000  1
  H  H2  1  0.75000000  0.39398447  0.64398447  1
  H  H3  1  0.25000000  0.10601553  0.85601553  1
  N  N4  1  0.60711001  0.75000000  0.35711001  1
  N  N5  1  0.75000000  0.60771638  0.85771638  1
  N  N6  1  0.89288999  0.25000000  0.14288999  1
  N  N7  1  0.25000000  0.89228362  0.64228362  1
