# generated using pymatgen
data_LiBrO3
_symmetry_space_group_name_H-M   'P 1'
_cell_length_a   5.35689984
_cell_length_b   5.35689984
_cell_length_c   5.52440937
_cell_angle_alpha   90.00000000
_cell_angle_beta   90.00000000
_cell_angle_gamma   120.00000000
_symmetry_Int_Tables_number   1
_chemical_formula_structural   LiBrO3
_chemical_formula_sum   'Li2 Br2 O6'
_cell_volume   137.29146446
_cell_formula_units_Z   2
loop_
 _symmetry_equiv_pos_site_id
 _symmetry_equiv_pos_as_xyz
  1  'x, y, z'
loop_
 _atom_site_type_symbol
 _atom_site_label
 _atom_site_symmetry_multiplicity
 _atom_site_fract_x
 _atom_site_fract_y
 _atom_site_fract_z
 _atom_site_occupancy
  Li  Li0  1  0.00000000  0.00000000  0.08721312  1
  Li  Li1  1  0.00000000  0.00000000  0.58721312  1
  Br  Br2  1  0.33333333  0.66666667  0.96990059  1
  Br  Br3  1  0.66666667  0.33333333  0.46990059  1
  O  O4  1  0.75098644  0.09526023  0.34886287  1
  O  O5  1  0.34427379  0.24901356  0.34886287  1
  O  O6  1  0.24901356  0.90473977  0.84886287  1
  O  O7  1  0.65572621  0.75098644  0.84886287  1
  O  O8  1  0.09526023  0.34427379  0.84886287  1
  O  O9  1  0.90473977  0.65572621  0.34886287  1
