# generated using pymatgen
data_B2O3
_symmetry_space_group_name_H-M   'P 1'
_cell_length_a   4.43671826
_cell_length_b   18.90604950
_cell_length_c   18.90604950
_cell_angle_alpha   119.99999999
_cell_angle_beta   90.00000000
_cell_angle_gamma   90.00000000
_symmetry_Int_Tables_number   1
_chemical_formula_structural   B2O3
_chemical_formula_sum   'B12 O18'
_cell_volume   1373.39057906
_cell_formula_units_Z   6
loop_
 _symmetry_equiv_pos_site_id
 _symmetry_equiv_pos_as_xyz
  1  'x, y, z'
loop_
 _atom_site_type_symbol
 _atom_site_label
 _atom_site_symmetry_multiplicity
 _atom_site_fract_x
 _atom_site_fract_y
 _atom_site_fract_z
 _atom_site_occupancy
  B  B0  1  0.42493656  0.03383626  0.33030028  1
  B  B1  1  0.42482128  0.17064263  0.70430372  1
  B  B2  1  0.42498951  0.79569307  0.46587615  1
  B  B3  1  0.92520217  0.96610313  0.66943349  1
  B  B4  1  0.92495160  0.82961934  0.29589880  1
  B  B5  1  0.92490083  0.20410611  0.53418305  1
  B  B6  1  0.42518742  0.03359357  0.70327348  1
  B  B7  1  0.42489524  0.17034843  0.46682508  1
  B  B8  1  0.42497072  0.79584235  0.32940050  1
  B  B9  1  0.92494012  0.96645474  0.29649270  1
  B  B10  1  0.92498334  0.82936787  0.53312949  1
  B  B11  1  0.92478103  0.20439720  0.67088542  1
  O  O12  1  0.72585763  0.02707573  0.30937774  1
  O  O13  1  0.72557155  0.19170989  0.71871922  1
  O  O14  1  0.72584532  0.78144987  0.47262084  1
  O  O15  1  0.22619242  0.97291931  0.69029292  1
  O  O16  1  0.22580635  0.80863745  0.28162342  1
  O  O17  1  0.22582582  0.21823296  0.52737740  1
  O  O18  1  0.72621418  0.02672559  0.71723728  1
  O  O19  1  0.72580379  0.19127813  0.47358473  1
  O  O20  1  0.72581927  0.78163096  0.30839262  1
  O  O21  1  0.22586761  0.97329188  0.28240295  1
  O  O22  1  0.22582290  0.80836681  0.52640596  1
  O  O23  1  0.22557279  0.21867528  0.69192521  1
  O  O24  1  0.81711392  0.20046902  0.60064004  1
  O  O25  1  0.81725602  0.89962995  0.59939748  1
  O  O26  1  0.81716674  0.89993758  0.30002077  1
  O  O27  1  0.31728258  0.79958831  0.39955237  1
  O  O28  1  0.31706772  0.10017605  0.40047585  1
  O  O29  1  0.31722558  0.10020052  0.69995101  1
