# generated using pymatgen
data_SiBPN4
_symmetry_space_group_name_H-M   'P 1'
_cell_length_a   5.26759225
_cell_length_b   5.26759225
_cell_length_c   5.26759225
_cell_angle_alpha   51.85865970
_cell_angle_beta   51.85865970
_cell_angle_gamma   51.85865970
_symmetry_Int_Tables_number   1
_chemical_formula_structural   SiBPN4
_chemical_formula_sum   'Si1 B1 P1 N4'
_cell_volume   83.56207705
_cell_formula_units_Z   1
loop_
 _symmetry_equiv_pos_site_id
 _symmetry_equiv_pos_as_xyz
  1  'x, y, z'
loop_
 _atom_site_type_symbol
 _atom_site_label
 _atom_site_symmetry_multiplicity
 _atom_site_fract_x
 _atom_site_fract_y
 _atom_site_fract_z
 _atom_site_occupancy
  Si  Si0  1  0.71602605  0.71602605  0.71602605  1
  B  B1  1  0.32912286  0.32912286  0.32912286  1
  P  P2  1  0.94836577  0.94836577  0.94836577  1
  N  N3  1  0.02219940  0.65216729  0.31937762  1
  N  N4  1  0.31937762  0.02219940  0.65216729  1
  N  N5  1  0.65216729  0.31937762  0.02219940  1
  N  N6  1  0.83597102  0.83597102  0.83597102  1
