# generated using pymatgen
data_LiNbO3
_symmetry_space_group_name_H-M   'P 1'
_cell_length_a   5.59272615
_cell_length_b   5.59272615
_cell_length_c   5.59272615
_cell_angle_alpha   55.65626995
_cell_angle_beta   55.65626995
_cell_angle_gamma   55.65626995
_symmetry_Int_Tables_number   1
_chemical_formula_structural   LiNbO3
_chemical_formula_sum   'Li2 Nb2 O6'
_cell_volume   111.22926620
_cell_formula_units_Z   2
loop_
 _symmetry_equiv_pos_site_id
 _symmetry_equiv_pos_as_xyz
  1  'x, y, z'
loop_
 _atom_site_type_symbol
 _atom_site_label
 _atom_site_symmetry_multiplicity
 _atom_site_fract_x
 _atom_site_fract_y
 _atom_site_fract_z
 _atom_site_occupancy
  Li  Li0  1  0.28284698  0.28284698  0.28284698  1
  Li  Li1  1  0.78284698  0.78284698  0.78284698  1
  Nb  Nb2  1  0.00073229  0.00073229  0.00073229  1
  Nb  Nb3  1  0.50073229  0.50073229  0.50073229  1
  O  O4  1  0.72004622  0.10969320  0.36028131  1
  O  O5  1  0.36028131  0.72004622  0.10969320  1
  O  O6  1  0.10969320  0.36028131  0.72004622  1
  O  O7  1  0.22004622  0.86028131  0.60969320  1
  O  O8  1  0.60969320  0.22004622  0.86028131  1
  O  O9  1  0.86028131  0.60969320  0.22004622  1
