# generated using pymatgen
data_LiTi2BiO6
_symmetry_space_group_name_H-M   'P 1'
_cell_length_a   5.58080846
_cell_length_b   5.58080846
_cell_length_c   5.58080846
_cell_angle_alpha   58.15488381
_cell_angle_beta   58.15488381
_cell_angle_gamma   58.15488381
_symmetry_Int_Tables_number   1
_chemical_formula_structural   LiTi2BiO6
_chemical_formula_sum   'Li1 Ti2 Bi1 O6'
_cell_volume   117.70927514
_cell_formula_units_Z   1
loop_
 _symmetry_equiv_pos_site_id
 _symmetry_equiv_pos_as_xyz
  1  'x, y, z'
loop_
 _atom_site_type_symbol
 _atom_site_label
 _atom_site_symmetry_multiplicity
 _atom_site_fract_x
 _atom_site_fract_y
 _atom_site_fract_z
 _atom_site_occupancy
  Li  Li0  1  0.69809538  0.69809538  0.69809538  1
  Ti  Ti1  1  0.98699176  0.98699176  0.98699176  1
  Ti  Ti2  1  0.48616466  0.48616466  0.48616466  1
  Bi  Bi3  1  0.21630002  0.21630002  0.21630002  1
  O  O4  1  0.26439972  0.68479685  0.82177894  1
  O  O5  1  0.82177894  0.26439972  0.68479685  1
  O  O6  1  0.68479685  0.82177894  0.26439972  1
  O  O7  1  0.34106744  0.16706300  0.76754022  1
  O  O8  1  0.16706300  0.76754022  0.34106744  1
  O  O9  1  0.76754022  0.34106744  0.16706300  1
