# generated using pymatgen
data_H8S(NO2)2
_symmetry_space_group_name_H-M   'P 1'
_cell_length_a   7.83700000
_cell_length_b   10.61000000
_cell_length_c   5.96700000
_cell_angle_alpha   90.00000000
_cell_angle_beta   90.00000000
_cell_angle_gamma   90.00000000
_symmetry_Int_Tables_number   1
_chemical_formula_structural   H8S(NO2)2
_chemical_formula_sum   'H32 S4 N8 O16'
_cell_volume   496.15945119
_cell_formula_units_Z   4
loop_
 _symmetry_equiv_pos_site_id
 _symmetry_equiv_pos_as_xyz
  1  'x, y, z'
loop_
 _atom_site_type_symbol
 _atom_site_label
 _atom_site_symmetry_multiplicity
 _atom_site_fract_x
 _atom_site_fract_y
 _atom_site_fract_z
 _atom_site_occupancy
  H  H0  1  0.44500000  0.82800000  0.41200000  1.0
  H  H1  1  0.55500000  0.17200000  0.91200000  1.0
  H  H2  1  0.05500000  0.32800000  0.91200000  1.0
  H  H3  1  0.94500000  0.67200000  0.41200000  1.0
  H  H4  1  0.39600000  0.83000000  0.14200000  1.0
  H  H5  1  0.60400000  0.17000000  0.64200000  1.0
  H  H6  1  0.10400000  0.33000000  0.64200000  1.0
  H  H7  1  0.89600000  0.67000000  0.14200000  1.0
  H  H8  1  0.49000000  0.70700000  0.26500000  1.0
  H  H9  1  0.51000000  0.29300000  0.76500000  1.0
  H  H10  1  0.01000000  0.20700000  0.76500000  1.0
  H  H11  1  0.99000000  0.79300000  0.26500000  1.0
  H  H12  1  0.59200000  0.84200000  0.22200000  1.0
  H  H13  1  0.40800000  0.15800000  0.72200000  1.0
  H  H14  1  0.27100000  0.16400000  0.20200000  1.0
  H  H15  1  0.90800000  0.34200000  0.72200000  1.0
  H  H16  1  0.18200000  0.08800000  0.40800000  1.0
  H  H17  1  0.81800000  0.91200000  0.90800000  1.0
  H  H18  1  0.31800000  0.58800000  0.90800000  1.0
  H  H19  1  0.68200000  0.41200000  0.40800000  1.0
  H  H20  1  0.19100000  0.02000000  0.15700000  1.0
  H  H21  1  0.80900000  0.98000000  0.65700000  1.0
  H  H22  1  0.30900000  0.52000000  0.65700000  1.0
  H  H23  1  0.69100000  0.48000000  0.15700000  1.0
  H  H24  1  0.06400000  0.14000000  0.20600000  1.0
  H  H25  1  0.93600000  0.86000000  0.70600000  1.0
  H  H26  1  0.43600000  0.64000000  0.70600000  1.0
  H  H27  1  0.56400000  0.36000000  0.20600000  1.0
  H  H28  1  0.77100000  0.33600000  0.20200000  1.0
  H  H29  1  0.22900000  0.66400000  0.70200000  1.0
  H  H30  1  0.72900000  0.83600000  0.70200000  1.0
  H  H31  1  0.09200000  0.65800000  0.22200000  1.0
  S  S32  1  0.74300000  0.07900000  0.25000000  1.0
  S  S33  1  0.25700000  0.92100000  0.75000000  1.0
  S  S34  1  0.75700000  0.57900000  0.75000000  1.0
  S  S35  1  0.24300000  0.42100000  0.25000000  1.0
  N  N36  1  0.47960000  0.80010000  0.25600000  1.0
  N  N37  1  0.52040000  0.19990000  0.75600000  1.0
  N  N38  1  0.02040000  0.30010000  0.75600000  1.0
  N  N39  1  0.97960000  0.69990000  0.25600000  1.0
  N  N40  1  0.18080000  0.10420000  0.24500000  1.0
  N  N41  1  0.81920000  0.89580000  0.74500000  1.0
  N  N42  1  0.31920000  0.60420000  0.74500000  1.0
  N  N43  1  0.68080000  0.39580000  0.24500000  1.0
  O  O44  1  0.79400000  0.11800000  0.47700000  1.0
  O  O45  1  0.20600000  0.88200000  0.97700000  1.0
  O  O46  1  0.70600000  0.61800000  0.97700000  1.0
  O  O47  1  0.29400000  0.38200000  0.47700000  1.0
  O  O48  1  0.83900000  0.15400000  0.08300000  1.0
  O  O49  1  0.16100000  0.84600000  0.58300000  1.0
  O  O50  1  0.66100000  0.65400000  0.58300000  1.0
  O  O51  1  0.33900000  0.34600000  0.08300000  1.0
  O  O52  1  0.78400000  0.94300000  0.22200000  1.0
  O  O53  1  0.21600000  0.05700000  0.72200000  1.0
  O  O54  1  0.71600000  0.44300000  0.72200000  1.0
  O  O55  1  0.28400000  0.55700000  0.22200000  1.0
  O  O56  1  0.56100000  0.09800000  0.21200000  1.0
  O  O57  1  0.43900000  0.90200000  0.71200000  1.0
  O  O58  1  0.93900000  0.59800000  0.71200000  1.0
  O  O59  1  0.06100000  0.40200000  0.21200000  1.0
