# generated using pymatgen
data_CuCl
_symmetry_space_group_name_H-M   'P 1'
_cell_length_a   7.27656575
_cell_length_b   7.27656575
_cell_length_c   7.27656575
_cell_angle_alpha   135.59407821
_cell_angle_beta   132.75921880
_cell_angle_gamma   66.83880884
_symmetry_Int_Tables_number   1
_chemical_formula_structural   CuCl
_chemical_formula_sum   'Cu4 Cl4'
_cell_volume   194.76274926
_cell_formula_units_Z   4
loop_
 _symmetry_equiv_pos_site_id
 _symmetry_equiv_pos_as_xyz
  1  'x, y, z'
loop_
 _atom_site_type_symbol
 _atom_site_label
 _atom_site_symmetry_multiplicity
 _atom_site_fract_x
 _atom_site_fract_y
 _atom_site_fract_z
 _atom_site_occupancy
  Cu  Cu0  1  0.01285368  0.76285368  0.25000000  1
  Cu  Cu1  1  0.48714632  0.73714632  0.75000000  1
  Cu  Cu2  1  0.23931316  0.98931316  0.25000000  1
  Cu  Cu3  1  0.26068684  0.51068684  0.75000000  1
  Cl  Cl4  1  0.75000000  0.46631669  0.71631669  1
  Cl  Cl5  1  0.25000000  0.03368331  0.78368331  1
  Cl  Cl6  1  0.53127582  0.75000000  0.28127582  1
  Cl  Cl7  1  0.96872418  0.25000000  0.21872418  1
