# generated using pymatgen
data_KLi(TlTe)2
_symmetry_space_group_name_H-M   'P 1'
_cell_length_a   4.83530880
_cell_length_b   7.99968341
_cell_length_c   10.95537771
_cell_angle_alpha   90.00000000
_cell_angle_beta   90.00000000
_cell_angle_gamma   90.00000000
_symmetry_Int_Tables_number   1
_chemical_formula_structural   KLi(TlTe)2
_chemical_formula_sum   'K2 Li2 Tl4 Te4'
_cell_volume   423.76430338
_cell_formula_units_Z   2
loop_
 _symmetry_equiv_pos_site_id
 _symmetry_equiv_pos_as_xyz
  1  'x, y, z'
loop_
 _atom_site_type_symbol
 _atom_site_label
 _atom_site_symmetry_multiplicity
 _atom_site_fract_x
 _atom_site_fract_y
 _atom_site_fract_z
 _atom_site_occupancy
  K  K0  1  0.00000000  0.01933906  0.47701653  1
  K  K1  1  0.00000000  0.51933906  0.52298347  1
  Li  Li2  1  0.50000000  0.11741774  0.72302295  1
  Li  Li3  1  0.50000000  0.61741774  0.27697705  1
  Tl  Tl4  1  0.50000000  0.00389933  0.11303185  1
  Tl  Tl5  1  0.00000000  0.36088323  0.14337124  1
  Tl  Tl6  1  0.50000000  0.50389933  0.88696815  1
  Tl  Tl7  1  0.00000000  0.86088323  0.85662876  1
  Te  Te8  1  0.00000000  0.25855870  0.77625946  1
  Te  Te9  1  0.50000000  0.28550295  0.34108184  1
  Te  Te10  1  0.00000000  0.75855870  0.22374054  1
  Te  Te11  1  0.50000000  0.78550295  0.65891816  1
