# generated using pymatgen
data_BaTlSb
_symmetry_space_group_name_H-M   'P 1'
_cell_length_a   4.98273000
_cell_length_b   4.98273000
_cell_length_c   11.15440000
_cell_angle_alpha   90.00000000
_cell_angle_beta   90.00000000
_cell_angle_gamma   120.00000000
_symmetry_Int_Tables_number   1
_chemical_formula_structural   BaTlSb
_chemical_formula_sum   'Ba2 Tl2 Sb2'
_cell_volume   239.83444429
_cell_formula_units_Z   2
loop_
 _symmetry_equiv_pos_site_id
 _symmetry_equiv_pos_as_xyz
  1  'x, y, z'
loop_
 _atom_site_type_symbol
 _atom_site_label
 _atom_site_symmetry_multiplicity
 _atom_site_fract_x
 _atom_site_fract_y
 _atom_site_fract_z
 _atom_site_occupancy
  Ba  Ba0  1  0.66666667  0.33333333  0.06223000  1
  Ba  Ba1  1  0.33333333  0.66666667  0.56223000  1
  Tl  Tl2  1  0.00000000  0.00000000  0.85515000  1
  Tl  Tl3  1  0.00000000  0.00000000  0.35515000  1
  Sb  Sb4  1  0.66666667  0.33333333  0.73265000  1
  Sb  Sb5  1  0.33333333  0.66666667  0.23265000  1
