# generated using pymatgen
data_BF3
_symmetry_space_group_name_H-M   'P 1'
_cell_length_a   3.19946095
_cell_length_b   9.26148779
_cell_length_c   16.97950287
_cell_angle_alpha   90.00000000
_cell_angle_beta   90.00000000
_cell_angle_gamma   90.00000000
_symmetry_Int_Tables_number   1
_chemical_formula_structural   BF3
_chemical_formula_sum   'B2 F6'
_cell_volume   503.13269868
_cell_formula_units_Z   2
loop_
 _symmetry_equiv_pos_site_id
 _symmetry_equiv_pos_as_xyz
  1  'x, y, z'
loop_
 _atom_site_type_symbol
 _atom_site_label
 _atom_site_symmetry_multiplicity
 _atom_site_fract_x
 _atom_site_fract_y
 _atom_site_fract_z
 _atom_site_occupancy
  B  B0  1  0.50000000  0.80701317  0.50000000  1
  B  B1  1  0.50000000  0.30701317  0.50000000  1
  F  F2  1  0.68833922  0.87727551  0.44170905  1
  F  F3  1  0.31166078  0.87727551  0.55829095  1
  F  F4  1  0.68833922  0.37727551  0.55829095  1
  F  F5  1  0.31166078  0.37727551  0.44170905  1
  F  F6  1  0.50000000  0.16382581  0.50000000  1
  F  F7  1  0.50000000  0.66382581  0.50000000  1
