# generated using pymatgen
data_LiHF2
_symmetry_space_group_name_H-M   'P 1'
_cell_length_a   3.06175855
_cell_length_b   5.04728717
_cell_length_c   5.37529449
_cell_angle_alpha   115.08792042
_cell_angle_beta   90.09304613
_cell_angle_gamma   107.54938406
_symmetry_Int_Tables_number   1
_chemical_formula_structural   LiHF2
_chemical_formula_sum   'Li2 H2 F4'
_cell_volume   70.91844729
_cell_formula_units_Z   2
loop_
 _symmetry_equiv_pos_site_id
 _symmetry_equiv_pos_as_xyz
  1  'x, y, z'
loop_
 _atom_site_type_symbol
 _atom_site_label
 _atom_site_symmetry_multiplicity
 _atom_site_fract_x
 _atom_site_fract_y
 _atom_site_fract_z
 _atom_site_occupancy
  Li  Li0  1  0.95415143  0.54543056  0.92510690  1
  Li  Li1  1  0.57565251  0.54653140  0.42512493  1
  H  H2  1  0.04949263  0.06822930  0.91252759  1
  H  H3  1  0.00568750  0.06852749  0.41262511  1
  F  F4  1  0.78053442  0.84021334  0.83649067  1
  F  F5  1  0.33239848  0.32909579  0.00073232  1
  F  F6  1  0.98304748  0.32911649  0.50067501  1
  F  F7  1  0.04635179  0.83984569  0.33655911  1
