# generated using pymatgen
data_BH2NF2
_symmetry_space_group_name_H-M   'P 1'
_cell_length_a   4.94299879
_cell_length_b   4.94299879
_cell_length_c   4.61970405
_cell_angle_alpha   90.00000000
_cell_angle_beta   90.00000000
_cell_angle_gamma   117.08158259
_symmetry_Int_Tables_number   1
_chemical_formula_structural   BH2NF2
_chemical_formula_sum   'B2 H4 N2 F4'
_cell_volume   100.49869174
_cell_formula_units_Z   2
loop_
 _symmetry_equiv_pos_site_id
 _symmetry_equiv_pos_as_xyz
  1  'x, y, z'
loop_
 _atom_site_type_symbol
 _atom_site_label
 _atom_site_symmetry_multiplicity
 _atom_site_fract_x
 _atom_site_fract_y
 _atom_site_fract_z
 _atom_site_occupancy
  B  B0  1  0.85501380  0.85501380  0.32841804  1
  B  B1  1  0.14498620  0.14498620  0.82841804  1
  H  H2  1  0.67199544  0.86668408  0.74353207  1
  H  H3  1  0.86668408  0.67199544  0.74353207  1
  H  H4  1  0.13331592  0.32800456  0.24353207  1
  H  H5  1  0.32800456  0.13331592  0.24353207  1
  N  N6  1  0.87268678  0.87268678  0.67376619  1
  N  N7  1  0.12731322  0.12731322  0.17376619  1
  F  F8  1  0.58179520  0.85591034  0.24199981  1
  F  F9  1  0.85591034  0.58179520  0.24199981  1
  F  F10  1  0.41820480  0.14408966  0.74199981  1
  F  F11  1  0.14408966  0.41820480  0.74199981  1
