# generated using pymatgen
data_BOF
_symmetry_space_group_name_H-M   'P 1'
_cell_length_a   4.80916063
_cell_length_b   6.85645748
_cell_length_c   17.63594305
_cell_angle_alpha   90.00000000
_cell_angle_beta   90.00000000
_cell_angle_gamma   110.46335323
_symmetry_Int_Tables_number   1
_chemical_formula_structural   BOF
_chemical_formula_sum   'B3 O3 F3'
_cell_volume   544.82765012
_cell_formula_units_Z   3
loop_
 _symmetry_equiv_pos_site_id
 _symmetry_equiv_pos_as_xyz
  1  'x, y, z'
loop_
 _atom_site_type_symbol
 _atom_site_label
 _atom_site_symmetry_multiplicity
 _atom_site_fract_x
 _atom_site_fract_y
 _atom_site_fract_z
 _atom_site_occupancy
  B  B0  1  0.91995132  0.18367179  0.52483228  1
  B  B1  1  0.73456007  0.81334588  0.52541766  1
  B  B2  1  0.50218664  0.99804153  0.44940142  1
  O  O3  1  0.70362086  0.18499481  0.47341928  1
  O  O4  1  0.51649982  0.81141244  0.47405109  1
  O  O5  1  0.93834945  0.99866864  0.55116840  1
  F  F6  1  0.75025906  0.63523605  0.55054979  1
  F  F7  1  0.11417154  0.36207251  0.54945517  1
  F  F8  1  0.28597882  0.99762827  0.40170490  1
