# generated using pymatgen
data_B5H12NO12
_symmetry_space_group_name_H-M   'P 1'
_cell_length_a   7.19022461
_cell_length_b   7.19022461
_cell_length_c   11.31920000
_cell_angle_alpha   90.00000000
_cell_angle_beta   90.00000000
_cell_angle_gamma   100.12450554
_symmetry_Int_Tables_number   1
_chemical_formula_structural   B5H12NO12
_chemical_formula_sum   'B10 H24 N2 O24'
_cell_volume   576.08244792
_cell_formula_units_Z   2
loop_
 _symmetry_equiv_pos_site_id
 _symmetry_equiv_pos_as_xyz
  1  'x, y, z'
loop_
 _atom_site_type_symbol
 _atom_site_label
 _atom_site_symmetry_multiplicity
 _atom_site_fract_x
 _atom_site_fract_y
 _atom_site_fract_z
 _atom_site_occupancy
  B  B0  1  0.10580000  0.10580000  0.50000000  1.0
  B  B1  1  0.60580000  0.60580000  0.00000000  1.0
  B  B2  1  0.29370000  0.10190000  0.31650000  1.0
  B  B3  1  0.10190000  0.29370000  0.68350000  1.0
  B  B4  1  0.79370000  0.60190000  0.18350000  1.0
  B  B5  1  0.60190000  0.79370000  0.81650000  1.0
  B  B6  1  0.96130000  0.07270000  0.30050000  1.0
  B  B7  1  0.07270000  0.96130000  0.69950000  1.0
  B  B8  1  0.46130000  0.57270000  0.19950000  1.0
  B  B9  1  0.57270000  0.46130000  0.80050000  1.0
  H  H10  1  0.45500000  0.10700000  0.18800000  1.0
  H  H11  1  0.10700000  0.45500000  0.81200000  1.0
  H  H12  1  0.95500000  0.60700000  0.31200000  1.0
  H  H13  1  0.60700000  0.95500000  0.68800000  1.0
  H  H14  1  0.70500000  0.05100000  0.25800000  1.0
  H  H15  1  0.05100000  0.70500000  0.74200000  1.0
  H  H16  1  0.20500000  0.55100000  0.24200000  1.0
  H  H17  1  0.55100000  0.20500000  0.75800000  1.0
  H  H18  1  0.99400000  0.49000000  0.50000000  1.0
  H  H19  1  0.49000000  0.99400000  0.50000000  1.0
  H  H20  1  0.49400000  0.99000000  0.00000000  1.0
  H  H21  1  0.99000000  0.49400000  0.00000000  1.0
  H  H22  1  0.99400000  0.68600000  0.50600000  1.0
  H  H23  1  0.68600000  0.99400000  0.49400000  1.0
  H  H24  1  0.49400000  0.18600000  0.99400000  1.0
  H  H25  1  0.18600000  0.49400000  0.00600000  1.0
  H  H26  1  0.13300000  0.01700000  0.03100000  1.0
  H  H27  1  0.01700000  0.13300000  0.96900000  1.0
  H  H28  1  0.63300000  0.51700000  0.46900000  1.0
  H  H29  1  0.51700000  0.63300000  0.53100000  1.0
  H  H30  1  0.00700000  0.92500000  0.95700000  1.0
  H  H31  1  0.92500000  0.00700000  0.04300000  1.0
  H  H32  1  0.50700000  0.42500000  0.54300000  1.0
  H  H33  1  0.42500000  0.50700000  0.45700000  1.0
  N  N34  1  0.01830000  0.01830000  0.00000000  1.0
  N  N35  1  0.51830000  0.51830000  0.50000000  1.0
  O  O36  1  0.28480000  0.11360000  0.43550000  1.0
  O  O37  1  0.11360000  0.28480000  0.56450000  1.0
  O  O38  1  0.78480000  0.61360000  0.06450000  1.0
  O  O39  1  0.61360000  0.78480000  0.93550000  1.0
  O  O40  1  0.94370000  0.08190000  0.41880000  1.0
  O  O41  1  0.08190000  0.94370000  0.58120000  1.0
  O  O42  1  0.44370000  0.58190000  0.08120000  1.0
  O  O43  1  0.58190000  0.44370000  0.91880000  1.0
  O  O44  1  0.13510000  0.08150000  0.24740000  1.0
  O  O45  1  0.08150000  0.13510000  0.75260000  1.0
  O  O46  1  0.63510000  0.58150000  0.25260000  1.0
  O  O47  1  0.58150000  0.63510000  0.74740000  1.0
  O  O48  1  0.46340000  0.10960000  0.26260000  1.0
  O  O49  1  0.10960000  0.46340000  0.73740000  1.0
  O  O50  1  0.96340000  0.60960000  0.23740000  1.0
  O  O51  1  0.60960000  0.96340000  0.76260000  1.0
  O  O52  1  0.81430000  0.05090000  0.22420000  1.0
  O  O53  1  0.05090000  0.81430000  0.77580000  1.0
  O  O54  1  0.31430000  0.55090000  0.27580000  1.0
  O  O55  1  0.55090000  0.31430000  0.72420000  1.0
  O  O56  1  0.93870000  0.58690000  0.47430000  1.0
  O  O57  1  0.58690000  0.93870000  0.52570000  1.0
  O  O58  1  0.43870000  0.08690000  0.02570000  1.0
  O  O59  1  0.08690000  0.43870000  0.97430000  1.0
