# generated using pymatgen
data_BOF
_symmetry_space_group_name_H-M   'P 1'
_cell_length_a   4.48731223
_cell_length_b   7.08730889
_cell_length_c   18.26096928
_cell_angle_alpha   90.00000000
_cell_angle_beta   90.00000000
_cell_angle_gamma   90.00000000
_symmetry_Int_Tables_number   1
_chemical_formula_structural   BOF
_chemical_formula_sum   'B4 O4 F4'
_cell_volume   580.75301963
_cell_formula_units_Z   4
loop_
 _symmetry_equiv_pos_site_id
 _symmetry_equiv_pos_as_xyz
  1  'x, y, z'
loop_
 _atom_site_type_symbol
 _atom_site_label
 _atom_site_symmetry_multiplicity
 _atom_site_fract_x
 _atom_site_fract_y
 _atom_site_fract_z
 _atom_site_occupancy
  B  B0  1  0.14764490  0.46295957  0.52959765  1
  B  B1  1  0.85235509  0.96295957  0.47040235  1
  B  B2  1  0.64764491  0.46295957  0.47040235  1
  B  B3  1  0.35235509  0.96295957  0.52959765  1
  O  O4  1  0.85194883  0.41530243  0.52218463  1
  O  O5  1  0.14805117  0.91530243  0.47781537  1
  O  O6  1  0.35194884  0.41530243  0.47781537  1
  O  O7  1  0.64805117  0.91530243  0.52218463  1
  F  F8  1  0.27221621  0.06117073  0.58928258  1
  F  F9  1  0.72778378  0.56117073  0.41071742  1
  F  F10  1  0.77221622  0.06117073  0.41071742  1
  F  F11  1  0.22778378  0.56117073  0.58928258  1
