# generated using pymatgen
data_HCl
_symmetry_space_group_name_H-M   'P 1'
_cell_length_a   17.64597711
_cell_length_b   4.05845803
_cell_length_c   4.95627774
_cell_angle_alpha   53.21267356
_cell_angle_beta   90.00000000
_cell_angle_gamma   90.00000000
_symmetry_Int_Tables_number   1
_chemical_formula_structural   HCl
_chemical_formula_sum   'H2 Cl2'
_cell_volume   284.26349942
_cell_formula_units_Z   2
loop_
 _symmetry_equiv_pos_site_id
 _symmetry_equiv_pos_as_xyz
  1  'x, y, z'
loop_
 _atom_site_type_symbol
 _atom_site_label
 _atom_site_symmetry_multiplicity
 _atom_site_fract_x
 _atom_site_fract_y
 _atom_site_fract_z
 _atom_site_occupancy
  H  H0  1  0.48187954  0.40726668  0.01712672  1
  H  H1  1  0.51812046  0.40726668  0.51712673  1
  Cl  Cl2  1  0.56996095  0.40723330  0.32562329  1
  Cl  Cl3  1  0.43003905  0.40723329  0.82562329  1
