# generated using pymatgen
data_HCl
_symmetry_space_group_name_H-M   'P 1'
_cell_length_a   21.69431067
_cell_length_b   3.70981386
_cell_length_c   3.74468998
_cell_angle_alpha   88.03197217
_cell_angle_beta   90.00000000
_cell_angle_gamma   90.00000000
_symmetry_Int_Tables_number   1
_chemical_formula_structural   HCl
_chemical_formula_sum   'H3 Cl3'
_cell_volume   301.20182422
_cell_formula_units_Z   3
loop_
 _symmetry_equiv_pos_site_id
 _symmetry_equiv_pos_as_xyz
  1  'x, y, z'
loop_
 _atom_site_type_symbol
 _atom_site_label
 _atom_site_symmetry_multiplicity
 _atom_site_fract_x
 _atom_site_fract_y
 _atom_site_fract_z
 _atom_site_occupancy
  H  H0  1  0.63938805  0.45311681  0.75899612  1
  H  H1  1  0.36061194  0.45311681  0.75899612  1
  H  H2  1  0.50000000  0.50751393  0.28107077  1
  Cl  Cl3  1  0.65428723  0.69073011  0.98823451  1
  Cl  Cl4  1  0.34571276  0.69073011  0.98823451  1
  Cl  Cl5  1  0.50000000  0.25058214  0.52283795  1
