# generated using pymatgen
data_GeH3Cl
_symmetry_space_group_name_H-M   'P 1'
_cell_length_a   4.75026103
_cell_length_b   5.65371338
_cell_length_c   6.68513304
_cell_angle_alpha   90.04924850
_cell_angle_beta   90.01864088
_cell_angle_gamma   90.31363063
_symmetry_Int_Tables_number   1
_chemical_formula_structural   GeH3Cl
_chemical_formula_sum   'Ge2 H6 Cl2'
_cell_volume   179.53727376
_cell_formula_units_Z   2
loop_
 _symmetry_equiv_pos_site_id
 _symmetry_equiv_pos_as_xyz
  1  'x, y, z'
loop_
 _atom_site_type_symbol
 _atom_site_label
 _atom_site_symmetry_multiplicity
 _atom_site_fract_x
 _atom_site_fract_y
 _atom_site_fract_z
 _atom_site_occupancy
  Ge  Ge0  1  0.73368625  0.07520671  0.70083218  1
  Ge  Ge1  1  0.23567187  0.57209435  0.20065896  1
  H  H2  1  0.55643216  0.59030280  0.20076738  1
  H  H3  1  0.59800825  0.98095114  0.89234603  1
  H  H4  1  0.09998451  0.66640084  0.39183222  1
  H  H5  1  0.05431944  0.05881042  0.70052250  1
  H  H6  1  0.09984835  0.66557747  0.00934413  1
  H  H7  1  0.59681586  0.98001916  0.50989768  1
  Cl  Cl8  1  0.63451500  0.45471740  0.70056984  1
  Cl  Cl9  1  0.13447230  0.19203571  0.20093807  1
