# generated using pymatgen
data_NaBrO3
_symmetry_space_group_name_H-M   'P 1'
_cell_length_a   6.81399020
_cell_length_b   6.81399020
_cell_length_c   6.81399020
_cell_angle_alpha   90.00000000
_cell_angle_beta   90.00000000
_cell_angle_gamma   90.00000000
_symmetry_Int_Tables_number   1
_chemical_formula_structural   NaBrO3
_chemical_formula_sum   'Na4 Br4 O12'
_cell_volume   316.37671609
_cell_formula_units_Z   4
loop_
 _symmetry_equiv_pos_site_id
 _symmetry_equiv_pos_as_xyz
  1  'x, y, z'
loop_
 _atom_site_type_symbol
 _atom_site_label
 _atom_site_symmetry_multiplicity
 _atom_site_fract_x
 _atom_site_fract_y
 _atom_site_fract_z
 _atom_site_occupancy
  Na  Na0  1  0.07679472  0.07679472  0.07679472  1
  Na  Na1  1  0.42320528  0.92320528  0.57679472  1
  Na  Na2  1  0.57679472  0.42320528  0.92320528  1
  Na  Na3  1  0.92320528  0.57679472  0.42320528  1
  Br  Br4  1  0.40646857  0.40646857  0.40646857  1
  Br  Br5  1  0.09353143  0.59353143  0.90646857  1
  Br  Br6  1  0.90646857  0.09353143  0.59353143  1
  Br  Br7  1  0.59353143  0.90646857  0.09353143  1
  O  O8  1  0.21343667  0.40116154  0.00761348  1
  O  O9  1  0.71343667  0.09883846  0.99238652  1
  O  O10  1  0.78656333  0.90116154  0.49238652  1
  O  O11  1  0.09883846  0.99238652  0.71343667  1
  O  O12  1  0.49238652  0.78656333  0.90116154  1
  O  O13  1  0.99238652  0.71343667  0.09883846  1
  O  O14  1  0.40116154  0.00761348  0.21343667  1
  O  O15  1  0.00761348  0.21343667  0.40116154  1
  O  O16  1  0.28656333  0.59883846  0.50761348  1
  O  O17  1  0.50761348  0.28656333  0.59883846  1
  O  O18  1  0.59883846  0.50761348  0.28656333  1
  O  O19  1  0.90116154  0.49238652  0.78656333  1
