# generated using pymatgen
data_GeH3Cl
_symmetry_space_group_name_H-M   'P 1'
_cell_length_a   4.59868005
_cell_length_b   4.59868005
_cell_length_c   4.59868005
_cell_angle_alpha   103.38317379
_cell_angle_beta   103.38317379
_cell_angle_gamma   103.38317379
_symmetry_Int_Tables_number   1
_chemical_formula_structural   GeH3Cl
_chemical_formula_sum   'Ge1 H3 Cl1'
_cell_volume   87.76843883
_cell_formula_units_Z   1
loop_
 _symmetry_equiv_pos_site_id
 _symmetry_equiv_pos_as_xyz
  1  'x, y, z'
loop_
 _atom_site_type_symbol
 _atom_site_label
 _atom_site_symmetry_multiplicity
 _atom_site_fract_x
 _atom_site_fract_y
 _atom_site_fract_z
 _atom_site_occupancy
  Ge  Ge0  1  0.15399116  0.15399116  0.15399116  1
  H  H1  1  0.32181511  0.96783595  0.96783595  1
  H  H2  1  0.96783595  0.96783595  0.32181511  1
  H  H3  1  0.96783595  0.32181511  0.96783595  1
  Cl  Cl4  1  0.53152184  0.53152184  0.53152184  1
