# generated using pymatgen
data_KBe2BO3F2
_symmetry_space_group_name_H-M   'P 1'
_cell_length_a   4.42610000
_cell_length_b   4.42610000
_cell_length_c   6.75584085
_cell_angle_alpha   70.87829745
_cell_angle_beta   70.87829745
_cell_angle_gamma   60.00000000
_symmetry_Int_Tables_number   1
_chemical_formula_structural   KBe2BO3F2
_chemical_formula_sum   'K1 Be2 B1 O3 F2'
_cell_volume   106.10210689
_cell_formula_units_Z   1
loop_
 _symmetry_equiv_pos_site_id
 _symmetry_equiv_pos_as_xyz
  1  'x, y, z'
loop_
 _atom_site_type_symbol
 _atom_site_label
 _atom_site_symmetry_multiplicity
 _atom_site_fract_x
 _atom_site_fract_y
 _atom_site_fract_z
 _atom_site_occupancy
  K  K5  1  0.00000000  0.00000000  0.00000000  1.0
  Be  Be1  1  0.80241667  0.80241667  0.59274999  1.0
  Be  Be2  1  0.19758333  0.19758333  0.40725001  1.0
  B  B0  1  0.50000000  0.50000000  0.50000000  1.0
  O  O6  1  0.50000000  0.80955000  0.50000000  1.0
  O  O7  1  0.19045000  0.50000000  0.50000000  1.0
  O  O8  1  0.80955000  0.19045000  0.50000000  1.0
  F  F3  1  0.72171667  0.72171667  0.83484999  1.0
  F  F4  1  0.27828333  0.27828333  0.16515001  1.0
