# generated using pymatgen
data_Rb5Zr4F21
_symmetry_space_group_name_H-M   'P 1'
_cell_length_a   7.86800000
_cell_length_b   11.22200000
_cell_length_c   11.52000000
_cell_angle_alpha   90.00000000
_cell_angle_beta   98.30000000
_cell_angle_gamma   90.00000000
_symmetry_Int_Tables_number   1
_chemical_formula_structural   Rb5Zr4F21
_chemical_formula_sum   'Rb10 Zr8 F42'
_cell_volume   1006.50100297
_cell_formula_units_Z   2
loop_
 _symmetry_equiv_pos_site_id
 _symmetry_equiv_pos_as_xyz
  1  'x, y, z'
loop_
 _atom_site_type_symbol
 _atom_site_label
 _atom_site_symmetry_multiplicity
 _atom_site_fract_x
 _atom_site_fract_y
 _atom_site_fract_z
 _atom_site_occupancy
  Rb  Rb0  1  0.31390000  0.48060000  0.11520000  1.0
  Rb  Rb1  1  0.68610000  0.98060000  0.88480000  1.0
  Rb  Rb2  1  0.02340000  0.50970000  0.74550000  1.0
  Rb  Rb3  1  0.97660000  0.00970000  0.25450000  1.0
  Rb  Rb4  1  0.16500000  0.17180000  0.90570000  1.0
  Rb  Rb5  1  0.83500000  0.67180000  0.09430000  1.0
  Rb  Rb6  1  0.19140000  0.36120000  0.45550000  1.0
  Rb  Rb7  1  0.80860000  0.86120000  0.54450000  1.0
  Rb  Rb8  1  0.28180000  0.02420000  0.60910000  1.0
  Rb  Rb9  1  0.71820000  0.52420000  0.39090000  1.0
  Zr  Zr10  1  0.46480000  0.15990000  0.27580000  1.0
  Zr  Zr11  1  0.53520000  0.65990000  0.72420000  1.0
  Zr  Zr12  1  0.82520000  0.30750000  0.09280000  1.0
  Zr  Zr13  1  0.17480000  0.80750000  0.90720000  1.0
  Zr  Zr14  1  0.49640000  0.34110000  0.77210000  1.0
  Zr  Zr15  1  0.50360000  0.84110000  0.22790000  1.0
  Zr  Zr16  1  0.78300000  0.20000000  0.59320000  1.0
  Zr  Zr17  1  0.21700000  0.70000000  0.40680000  1.0
  F  F18  1  0.94400000  0.10200000  0.71200000  1.0
  F  F19  1  0.05600000  0.60200000  0.28800000  1.0
  F  F20  1  0.62500000  0.06200000  0.60400000  1.0
  F  F21  1  0.37500000  0.56200000  0.39600000  1.0
  F  F22  1  0.94400000  0.12300000  0.49700000  1.0
  F  F23  1  0.05600000  0.62300000  0.50300000  1.0
  F  F24  1  0.48100000  0.16900000  0.81000000  1.0
  F  F25  1  0.51900000  0.66900000  0.19000000  1.0
  F  F26  1  0.88800000  0.35500000  0.56000000  1.0
  F  F27  1  0.11200000  0.85500000  0.44000000  1.0
  F  F28  1  0.43400000  0.33200000  0.30200000  1.0
  F  F29  1  0.56600000  0.83200000  0.69800000  1.0
  F  F30  1  0.54500000  0.30100000  0.59900000  1.0
  F  F31  1  0.45500000  0.80100000  0.40100000  1.0
  F  F32  1  0.32500000  0.20700000  0.12500000  1.0
  F  F33  1  0.34700000  0.40300000  0.88300000  1.0
  F  F34  1  0.29800000  0.13000000  0.38200000  1.0
  F  F35  1  0.70200000  0.63000000  0.61800000  1.0
  F  F36  1  0.61000000  0.00200000  0.32500000  1.0
  F  F37  1  0.39000000  0.50200000  0.67500000  1.0
  F  F38  1  0.01700000  0.89100000  0.98800000  1.0
  F  F39  1  0.98300000  0.39100000  0.01200000  1.0
  F  F40  1  0.00700000  0.79400000  0.76600000  1.0
  F  F41  1  0.99300000  0.29400000  0.23400000  1.0
  F  F42  1  0.35100000  0.99500000  0.19900000  1.0
  F  F43  1  0.64900000  0.49500000  0.80100000  1.0
  F  F44  1  0.10300000  0.65200000  0.96600000  1.0
  F  F45  1  0.89700000  0.15200000  0.03400000  1.0
  F  F46  1  0.23700000  0.77900000  0.24200000  1.0
  F  F47  1  0.76300000  0.27900000  0.75800000  1.0
  F  F48  1  0.28500000  0.94300000  0.84600000  1.0
  F  F49  1  0.71500000  0.44300000  0.15400000  1.0
  F  F50  1  0.32800000  0.69400000  0.82100000  1.0
  F  F51  1  0.67200000  0.19400000  0.17900000  1.0
  F  F52  1  0.34400000  0.70600000  0.58000000  1.0
  F  F53  1  0.65600000  0.20600000  0.42000000  1.0
  F  F54  1  0.74000000  0.79400000  0.31000000  1.0
  F  F55  1  0.26000000  0.29400000  0.69000000  1.0
  F  F56  1  0.36500000  0.81700000  0.04700000  1.0
  F  F57  1  0.63500000  0.31700000  0.95300000  1.0
  F  F58  1  0.67500000  0.70700000  0.87500000  1.0
  F  F59  1  0.65300000  0.90300000  0.11700000  1.0
