# generated using pymatgen
data_TlBH4
_symmetry_space_group_name_H-M   'P 1'
_cell_length_a   4.81710801
_cell_length_b   4.81710801
_cell_length_c   4.81710801
_cell_angle_alpha   120.43445037
_cell_angle_beta   117.40229320
_cell_angle_gamma   91.90328057
_symmetry_Int_Tables_number   1
_chemical_formula_structural   TlBH4
_chemical_formula_sum   'Tl1 B1 H4'
_cell_volume   80.21627516
_cell_formula_units_Z   1
loop_
 _symmetry_equiv_pos_site_id
 _symmetry_equiv_pos_as_xyz
  1  'x, y, z'
loop_
 _atom_site_type_symbol
 _atom_site_label
 _atom_site_symmetry_multiplicity
 _atom_site_fract_x
 _atom_site_fract_y
 _atom_site_fract_z
 _atom_site_occupancy
  Tl  Tl0  1  0.00000000  0.17278716  0.17278716  1
  B  B1  1  0.50000000  0.78913681  0.28913681  1
  H  H2  1  0.29840645  0.64121880  0.93962524  1
  H  H3  1  0.70159356  0.64121880  0.34281235  1
  H  H4  1  0.35106418  0.79292090  0.44185672  1
  H  H5  1  0.64893582  0.09079254  0.44185672  1
