# generated using pymatgen
data_H3SeI
_symmetry_space_group_name_H-M   'P 1'
_cell_length_a   5.24809183
_cell_length_b   5.24809183
_cell_length_c   5.24809183
_cell_angle_alpha   66.74757819
_cell_angle_beta   66.74757819
_cell_angle_gamma   66.74757819
_symmetry_Int_Tables_number   1
_chemical_formula_structural   H3SeI
_chemical_formula_sum   'H3 Se1 I1'
_cell_volume   117.02789699
_cell_formula_units_Z   1
loop_
 _symmetry_equiv_pos_site_id
 _symmetry_equiv_pos_as_xyz
  1  'x, y, z'
loop_
 _atom_site_type_symbol
 _atom_site_label
 _atom_site_symmetry_multiplicity
 _atom_site_fract_x
 _atom_site_fract_y
 _atom_site_fract_z
 _atom_site_occupancy
  H  H0  1  0.24444795  0.24444795  0.85731419  1
  H  H1  1  0.24444795  0.85731419  0.24444795  1
  H  H2  1  0.85731419  0.24444795  0.24444795  1
  Se  Se3  1  0.04445492  0.04445492  0.04445492  1
  I  I4  1  0.55233498  0.55233498  0.55233498  1
