# generated using pymatgen
data_GaSeCl
_symmetry_space_group_name_H-M   'P 1'
_cell_length_a   6.39756277
_cell_length_b   6.73711633
_cell_length_c   20.46015061
_cell_angle_alpha   90.00000000
_cell_angle_beta   90.00000000
_cell_angle_gamma   90.00000000
_symmetry_Int_Tables_number   1
_chemical_formula_structural   GaSeCl
_chemical_formula_sum   'Ga4 Se4 Cl4'
_cell_volume   881.85550098
_cell_formula_units_Z   4
loop_
 _symmetry_equiv_pos_site_id
 _symmetry_equiv_pos_as_xyz
  1  'x, y, z'
loop_
 _atom_site_type_symbol
 _atom_site_label
 _atom_site_symmetry_multiplicity
 _atom_site_fract_x
 _atom_site_fract_y
 _atom_site_fract_z
 _atom_site_occupancy
  Ga  Ga0  1  0.21213902  0.58580680  0.45375323  1
  Ga  Ga1  1  0.71213902  0.41419320  0.54624677  1
  Ga  Ga2  1  0.21213902  0.08580680  0.54624677  1
  Ga  Ga3  1  0.71213902  0.91419320  0.45375323  1
  Se  Se4  1  0.09875235  0.93498901  0.44257318  1
  Se  Se5  1  0.59875235  0.06501099  0.55742682  1
  Se  Se6  1  0.09875235  0.43498901  0.55742682  1
  Se  Se7  1  0.59875235  0.56501099  0.44257318  1
  Cl  Cl8  1  0.09397863  0.44058611  0.36656622  1
  Cl  Cl9  1  0.59397863  0.55941389  0.63343378  1
  Cl  Cl10  1  0.09397863  0.94058611  0.63343378  1
  Cl  Cl11  1  0.59397863  0.05941389  0.36656622  1
