# generated using pymatgen
data_LiAlSiSe4
_symmetry_space_group_name_H-M   'P 1'
_cell_length_a   6.51212713
_cell_length_b   6.51212713
_cell_length_c   6.51212713
_cell_angle_alpha   124.88545043
_cell_angle_beta   124.88545043
_cell_angle_gamma   81.72785152
_symmetry_Int_Tables_number   1
_chemical_formula_structural   LiAlSiSe4
_chemical_formula_sum   'Li1 Al1 Si1 Se4'
_cell_volume   178.80514922
_cell_formula_units_Z   1
loop_
 _symmetry_equiv_pos_site_id
 _symmetry_equiv_pos_as_xyz
  1  'x, y, z'
loop_
 _atom_site_type_symbol
 _atom_site_label
 _atom_site_symmetry_multiplicity
 _atom_site_fract_x
 _atom_site_fract_y
 _atom_site_fract_z
 _atom_site_occupancy
  Li  Li0  1  0.50000000  0.50000000  0.00000000  1
  Al  Al1  1  0.00000000  0.00000000  0.00000000  1
  Si  Si2  1  0.25000000  0.75000000  0.50000000  1
  Se  Se3  1  0.11924834  0.64350906  0.03099705  1
  Se  Se4  1  0.35649094  0.38748799  0.47573928  1
  Se  Se5  1  0.61251201  0.08825129  0.96900295  1
  Se  Se6  1  0.91174871  0.88075166  0.52426072  1
