# generated using pymatgen
data_Cs2HAu
_symmetry_space_group_name_H-M   'P 1'
_cell_length_a   8.76751344
_cell_length_b   8.76751344
_cell_length_c   8.76751344
_cell_angle_alpha   31.23532932
_cell_angle_beta   31.23532932
_cell_angle_gamma   31.23532932
_symmetry_Int_Tables_number   1
_chemical_formula_structural   Cs2HAu
_chemical_formula_sum   'Cs2 H1 Au1'
_cell_volume   160.82564357
_cell_formula_units_Z   1
loop_
 _symmetry_equiv_pos_site_id
 _symmetry_equiv_pos_as_xyz
  1  'x, y, z'
loop_
 _atom_site_type_symbol
 _atom_site_label
 _atom_site_symmetry_multiplicity
 _atom_site_fract_x
 _atom_site_fract_y
 _atom_site_fract_z
 _atom_site_occupancy
  Cs  Cs0  1  0.92833803  0.92833803  0.92833803  1
  Cs  Cs1  1  0.73823735  0.73823735  0.73823735  1
  H  H2  1  0.33327222  0.33327222  0.33327222  1
  Au  Au3  1  0.50014938  0.50014938  0.50014938  1
