# generated using pymatgen
data_CsTlTe
_symmetry_space_group_name_H-M   'P 1'
_cell_length_a   5.10871334
_cell_length_b   5.10871334
_cell_length_c   6.34225931
_cell_angle_alpha   90.00000000
_cell_angle_beta   90.00000000
_cell_angle_gamma   120.00000000
_symmetry_Int_Tables_number   1
_chemical_formula_structural   CsTlTe
_chemical_formula_sum   'Cs1 Tl1 Te1'
_cell_volume   143.34999936
_cell_formula_units_Z   1
loop_
 _symmetry_equiv_pos_site_id
 _symmetry_equiv_pos_as_xyz
  1  'x, y, z'
loop_
 _atom_site_type_symbol
 _atom_site_label
 _atom_site_symmetry_multiplicity
 _atom_site_fract_x
 _atom_site_fract_y
 _atom_site_fract_z
 _atom_site_occupancy
  Cs  Cs0  1  0.00000000  0.00000000  0.64959216  1
  Tl  Tl1  1  0.33333333  0.66666667  0.06882975  1
  Te  Te2  1  0.66666667  0.33333333  0.28157809  1
