# generated using pymatgen
data_Sr5Zr3F22
_symmetry_space_group_name_H-M   'P 1'
_cell_length_a   7.65500000
_cell_length_b   10.31300000
_cell_length_c   10.25500000
_cell_angle_alpha   90.00000000
_cell_angle_beta   90.00000000
_cell_angle_gamma   90.00000000
_symmetry_Int_Tables_number   1
_chemical_formula_structural   Sr5Zr3F22
_chemical_formula_sum   'Sr10 Zr6 F44'
_cell_volume   809.59138383
_cell_formula_units_Z   2
loop_
 _symmetry_equiv_pos_site_id
 _symmetry_equiv_pos_as_xyz
  1  'x, y, z'
loop_
 _atom_site_type_symbol
 _atom_site_label
 _atom_site_symmetry_multiplicity
 _atom_site_fract_x
 _atom_site_fract_y
 _atom_site_fract_z
 _atom_site_occupancy
  Sr  Sr0  1  0.26225000  0.79412000  0.25277000  1.0
  Sr  Sr1  1  0.76225000  0.70588000  0.74723000  1.0
  Sr  Sr2  1  0.73775000  0.20588000  0.25277000  1.0
  Sr  Sr3  1  0.23775000  0.29412000  0.74723000  1.0
  Sr  Sr4  1  0.00000000  0.00000000  0.97633000  1.0
  Sr  Sr5  1  0.50000000  0.50000000  0.02367000  1.0
  Sr  Sr6  1  0.50000000  0.00000000  0.93930000  1.0
  Sr  Sr7  1  0.00000000  0.50000000  0.06070000  1.0
  Sr  Sr8  1  0.50000000  0.50000000  0.46122000  1.0
  Sr  Sr9  1  0.00000000  0.00000000  0.53878000  1.0
  Zr  Zr10  1  0.75307000  0.78826000  0.22536000  1.0
  Zr  Zr11  1  0.25307000  0.71174000  0.77464000  1.0
  Zr  Zr12  1  0.24693000  0.21174000  0.22536000  1.0
  Zr  Zr13  1  0.74693000  0.28826000  0.77464000  1.0
  Zr  Zr14  1  0.00000000  0.50000000  0.46166000  1.0
  Zr  Zr15  1  0.50000000  0.00000000  0.53834000  1.0
  F  F16  1  0.71200000  0.10650000  0.47270000  1.0
  F  F17  1  0.21200000  0.39350000  0.52730000  1.0
  F  F18  1  0.28800000  0.89350000  0.47270000  1.0
  F  F19  1  0.78800000  0.60650000  0.52730000  1.0
  F  F20  1  0.73830000  0.38750000  0.11430000  1.0
  F  F21  1  0.23830000  0.11250000  0.88570000  1.0
  F  F22  1  0.26170000  0.61250000  0.11430000  1.0
  F  F23  1  0.76170000  0.88750000  0.88570000  1.0
  F  F24  1  0.71100000  0.89240000  0.60060000  1.0
  F  F25  1  0.21100000  0.60760000  0.39940000  1.0
  F  F26  1  0.28900000  0.10760000  0.60060000  1.0
  F  F27  1  0.78900000  0.39240000  0.39940000  1.0
  F  F28  1  0.91100000  0.39020000  0.62970000  1.0
  F  F29  1  0.41100000  0.10980000  0.37030000  1.0
  F  F30  1  0.56880000  0.34880000  0.63550000  1.0
  F  F31  1  0.08900000  0.60980000  0.62970000  1.0
  F  F32  1  0.74040000  0.65430000  0.07480000  1.0
  F  F33  1  0.24040000  0.84570000  0.92520000  1.0
  F  F34  1  0.25960000  0.34570000  0.07480000  1.0
  F  F35  1  0.75960000  0.15430000  0.92520000  1.0
  F  F36  1  0.98690000  0.79830000  0.12460000  1.0
  F  F37  1  0.48690000  0.70170000  0.87540000  1.0
  F  F38  1  0.01310000  0.20170000  0.12460000  1.0
  F  F39  1  0.51310000  0.29830000  0.87540000  1.0
  F  F40  1  0.52780000  0.84180000  0.12500000  1.0
  F  F41  1  0.02780000  0.65820000  0.87500000  1.0
  F  F42  1  0.47220000  0.15820000  0.12500000  1.0
  F  F43  1  0.97220000  0.34180000  0.87500000  1.0
  F  F44  1  0.78260000  0.98260000  0.16720000  1.0
  F  F45  1  0.28260000  0.51740000  0.83280000  1.0
  F  F46  1  0.21740000  0.01740000  0.16720000  1.0
  F  F47  1  0.71740000  0.48260000  0.83280000  1.0
  F  F48  1  0.56560000  0.65800000  0.29320000  1.0
  F  F49  1  0.06560000  0.84200000  0.70680000  1.0
  F  F50  1  0.43440000  0.34200000  0.29320000  1.0
  F  F51  1  0.93440000  0.15800000  0.70680000  1.0
  F  F52  1  0.90980000  0.61090000  0.29360000  1.0
  F  F53  1  0.40980000  0.88910000  0.70640000  1.0
  F  F54  1  0.09020000  0.38910000  0.29360000  1.0
  F  F55  1  0.59020000  0.11090000  0.70640000  1.0
  F  F56  1  0.93120000  0.84880000  0.36450000  1.0
  F  F57  1  0.43120000  0.65120000  0.63550000  1.0
  F  F58  1  0.06880000  0.15120000  0.36450000  1.0
  F  F59  1  0.58900000  0.89020000  0.37030000  1.0
