# generated using pymatgen
data_Tl2HgO
_symmetry_space_group_name_H-M   'P 1'
_cell_length_a   9.59987440
_cell_length_b   9.59987440
_cell_length_c   9.59987440
_cell_angle_alpha   21.77181048
_cell_angle_beta   21.77181048
_cell_angle_gamma   21.77181048
_symmetry_Int_Tables_number   1
_chemical_formula_structural   Tl2HgO
_chemical_formula_sum   'Tl2 Hg1 O1'
_cell_volume   106.67414558
_cell_formula_units_Z   1
loop_
 _symmetry_equiv_pos_site_id
 _symmetry_equiv_pos_as_xyz
  1  'x, y, z'
loop_
 _atom_site_type_symbol
 _atom_site_label
 _atom_site_symmetry_multiplicity
 _atom_site_fract_x
 _atom_site_fract_y
 _atom_site_fract_z
 _atom_site_occupancy
  Tl  Tl0  1  0.05377033  0.05377033  0.05377033  1
  Tl  Tl1  1  0.27958607  0.27958607  0.27958607  1
  Hg  Hg2  1  0.49983595  0.49983595  0.49983595  1
  O  O3  1  0.66680799  0.66680799  0.66680799  1
