# generated using pymatgen
data_Sr8AgBi5
_symmetry_space_group_name_H-M   'P 1'
_cell_length_a   8.84310712
_cell_length_b   8.84310712
_cell_length_c   8.84310712
_cell_angle_alpha   109.43818921
_cell_angle_beta   109.43818921
_cell_angle_gamma   109.53730371
_symmetry_Int_Tables_number   1
_chemical_formula_structural   Sr8AgBi5
_chemical_formula_sum   'Sr8 Ag1 Bi5'
_cell_volume   532.34396273
_cell_formula_units_Z   1
loop_
 _symmetry_equiv_pos_site_id
 _symmetry_equiv_pos_as_xyz
  1  'x, y, z'
loop_
 _atom_site_type_symbol
 _atom_site_label
 _atom_site_symmetry_multiplicity
 _atom_site_fract_x
 _atom_site_fract_y
 _atom_site_fract_z
 _atom_site_occupancy
  Sr  Sr0  1  0.72872427  0.62863080  0.75704475  1
  Sr  Sr1  1  0.37136920  0.12841395  0.10009347  1
  Sr  Sr2  1  0.88155115  0.49065355  0.24156418  1
  Sr  Sr3  1  0.50934645  0.75091063  0.39089760  1
  Sr  Sr4  1  0.36001303  0.11844885  0.60910240  1
  Sr  Sr5  1  0.02832048  0.27127573  0.89990653  1
  Sr  Sr6  1  0.87158605  0.97167952  0.24295525  1
  Sr  Sr7  1  0.24908937  0.63998697  0.75843582  1
  Ag  Ag8  1  0.75000000  0.25000000  0.50000000  1
  Bi  Bi9  1  0.24942938  0.36668026  0.38138805  1
  Bi  Bi10  1  0.63331974  0.01470779  0.88274912  1
  Bi  Bi11  1  0.98529221  0.86804133  0.61861195  1
  Bi  Bi12  1  0.50000000  0.50000000  0.00000000  1
  Bi  Bi13  1  0.13195867  0.75057062  0.11725088  1
