# generated using pymatgen
data_Li3HfF7
_symmetry_space_group_name_H-M   'P 1'
_cell_length_a   5.31314149
_cell_length_b   5.31314149
_cell_length_c   5.72781798
_cell_angle_alpha   67.24823603
_cell_angle_beta   67.24823603
_cell_angle_gamma   88.38506028
_symmetry_Int_Tables_number   1
_chemical_formula_structural   Li3HfF7
_chemical_formula_sum   'Li3 Hf1 F7'
_cell_volume   136.10131707
_cell_formula_units_Z   1
loop_
 _symmetry_equiv_pos_site_id
 _symmetry_equiv_pos_as_xyz
  1  'x, y, z'
loop_
 _atom_site_type_symbol
 _atom_site_label
 _atom_site_symmetry_multiplicity
 _atom_site_fract_x
 _atom_site_fract_y
 _atom_site_fract_z
 _atom_site_occupancy
  Li  Li0  1  0.64023266  0.16374785  0.58613689  1
  Li  Li1  1  0.58459218  0.58459218  0.74666038  1
  Li  Li2  1  0.16374785  0.64023266  0.58613689  1
  Hf  Hf3  1  0.98071186  0.98071186  0.99677740  1
  F  F4  1  0.31122029  0.31122029  0.78847492  1
  F  F5  1  0.31232635  0.85737954  0.73071928  1
  F  F6  1  0.19901231  0.82422275  0.22509791  1
  F  F7  1  0.85737954  0.31232635  0.73071928  1
  F  F8  1  0.81390918  0.81390918  0.80120157  1
  F  F9  1  0.82422275  0.19901231  0.22509791  1
  F  F10  1  0.68764306  0.68764306  0.33297954  1
