# generated using pymatgen
data_Be2PN3
_symmetry_space_group_name_H-M   'P 1'
_cell_length_a   4.88873905
_cell_length_b   4.88873905
_cell_length_c   4.58724191
_cell_angle_alpha   90.00000000
_cell_angle_beta   90.00000000
_cell_angle_gamma   119.92300979
_symmetry_Int_Tables_number   1
_chemical_formula_structural   Be2PN3
_chemical_formula_sum   'Be4 P2 N6'
_cell_volume   95.01942378
_cell_formula_units_Z   2
loop_
 _symmetry_equiv_pos_site_id
 _symmetry_equiv_pos_as_xyz
  1  'x, y, z'
loop_
 _atom_site_type_symbol
 _atom_site_label
 _atom_site_symmetry_multiplicity
 _atom_site_fract_x
 _atom_site_fract_y
 _atom_site_fract_z
 _atom_site_occupancy
  Be  Be0  1  0.83276533  0.49067391  0.55999033  1
  Be  Be1  1  0.50932609  0.16723467  0.05999033  1
  Be  Be2  1  0.49067391  0.83276533  0.55999033  1
  Be  Be3  1  0.16723467  0.50932609  0.05999033  1
  P  P4  1  0.82340261  0.82340261  0.04379893  1
  P  P5  1  0.17659739  0.17659739  0.54379893  1
  N  N6  1  0.83332610  0.51266665  0.93914591  1
  N  N7  1  0.48733335  0.16667390  0.43914591  1
  N  N8  1  0.51266665  0.83332610  0.93914591  1
  N  N9  1  0.16667390  0.48733335  0.43914591  1
  N  N10  1  0.85031507  0.85031507  0.41593959  1
  N  N11  1  0.14968493  0.14968493  0.91593959  1
