# generated using pymatgen
data_HBr
_symmetry_space_group_name_H-M   'P 1'
_cell_length_a   4.92306931
_cell_length_b   5.62183181
_cell_length_c   19.50606921
_cell_angle_alpha   90.00000000
_cell_angle_beta   90.00000000
_cell_angle_gamma   90.00000000
_symmetry_Int_Tables_number   1
_chemical_formula_structural   HBr
_chemical_formula_sum   'H4 Br4'
_cell_volume   539.86299468
_cell_formula_units_Z   4
loop_
 _symmetry_equiv_pos_site_id
 _symmetry_equiv_pos_as_xyz
  1  'x, y, z'
loop_
 _atom_site_type_symbol
 _atom_site_label
 _atom_site_symmetry_multiplicity
 _atom_site_fract_x
 _atom_site_fract_y
 _atom_site_fract_z
 _atom_site_occupancy
  H  H0  1  0.19736682  0.21545827  0.61529806  1
  H  H1  1  0.80263317  0.21545827  0.38470194  1
  H  H2  1  0.30263318  0.71545827  0.61529806  1
  H  H3  1  0.69736683  0.71545827  0.38470194  1
  Br  Br4  1  0.99776677  0.01952170  0.61550428  1
  Br  Br5  1  0.00223323  0.01952170  0.38449572  1
  Br  Br6  1  0.50223323  0.51952170  0.61550428  1
  Br  Br7  1  0.49776678  0.51952170  0.38449572  1
