# generated using pymatgen
data_SeOF2
_symmetry_space_group_name_H-M   'P 1'
_cell_length_a   4.25666340
_cell_length_b   4.27266629
_cell_length_c   5.14437890
_cell_angle_alpha   103.91612983
_cell_angle_beta   113.08219737
_cell_angle_gamma   99.86257575
_symmetry_Int_Tables_number   1
_chemical_formula_structural   SeOF2
_chemical_formula_sum   'Se1 O1 F2'
_cell_volume   79.76517467
_cell_formula_units_Z   1
loop_
 _symmetry_equiv_pos_site_id
 _symmetry_equiv_pos_as_xyz
  1  'x, y, z'
loop_
 _atom_site_type_symbol
 _atom_site_label
 _atom_site_symmetry_multiplicity
 _atom_site_fract_x
 _atom_site_fract_y
 _atom_site_fract_z
 _atom_site_occupancy
  Se  Se0  1  0.64473119  0.39131072  0.02991959  1
  O  O1  1  0.31606054  0.51065591  0.83684442  1
  F  F2  1  0.52916337  0.31374531  0.31236084  1
  F  F3  1  0.97404488  0.78428805  0.28487513  1
