# generated using pymatgen
data_Li2TiO3
_symmetry_space_group_name_H-M   'P 1'
_cell_length_a   5.57291346
_cell_length_b   5.57291346
_cell_length_c   5.10172373
_cell_angle_alpha   90.00000000
_cell_angle_beta   90.00000000
_cell_angle_gamma   119.12798816
_symmetry_Int_Tables_number   1
_chemical_formula_structural   Li2TiO3
_chemical_formula_sum   'Li4 Ti2 O6'
_cell_volume   138.40813675
_cell_formula_units_Z   2
loop_
 _symmetry_equiv_pos_site_id
 _symmetry_equiv_pos_as_xyz
  1  'x, y, z'
loop_
 _atom_site_type_symbol
 _atom_site_label
 _atom_site_symmetry_multiplicity
 _atom_site_fract_x
 _atom_site_fract_y
 _atom_site_fract_z
 _atom_site_occupancy
  Li  Li0  1  0.51150988  0.16706925  0.44864471  1
  Li  Li1  1  0.83293075  0.48849012  0.94864471  1
  Li  Li2  1  0.16706925  0.51150988  0.44864471  1
  Li  Li3  1  0.48849012  0.83293075  0.94864471  1
  Ti  Ti4  1  0.17450099  0.17450099  0.95231337  1
  Ti  Ti5  1  0.82549901  0.82549901  0.45231337  1
  O  O6  1  0.47808943  0.17164764  0.05589078  1
  O  O7  1  0.82835236  0.52191057  0.55589078  1
  O  O8  1  0.17164764  0.47808943  0.05589078  1
  O  O9  1  0.52191057  0.82835236  0.55589078  1
  O  O10  1  0.14296790  0.14296790  0.58060667  1
  O  O11  1  0.85703210  0.85703210  0.08060667  1
