# generated using pymatgen
data_HF
_symmetry_space_group_name_H-M   'P 1'
_cell_length_a   16.27846803
_cell_length_b   3.39500994
_cell_length_c   4.00314898
_cell_angle_alpha   60.83322507
_cell_angle_beta   90.00000000
_cell_angle_gamma   90.00000000
_symmetry_Int_Tables_number   1
_chemical_formula_structural   HF
_chemical_formula_sum   'H2 F2'
_cell_volume   193.18458285
_cell_formula_units_Z   2
loop_
 _symmetry_equiv_pos_site_id
 _symmetry_equiv_pos_as_xyz
  1  'x, y, z'
loop_
 _atom_site_type_symbol
 _atom_site_label
 _atom_site_symmetry_multiplicity
 _atom_site_fract_x
 _atom_site_fract_y
 _atom_site_fract_z
 _atom_site_occupancy
  H  H0  1  0.49372477  0.37397469  0.49069483  1
  H  H1  1  0.50627523  0.37397469  0.99069483  1
  F  F2  1  0.46073132  0.37439537  0.70658016  1
  F  F3  1  0.53926868  0.37439537  0.20658016  1
