# generated using pymatgen
data_SiO2
_symmetry_space_group_name_H-M   'P 1'
_cell_length_a   4.78472373
_cell_length_b   7.86690900
_cell_length_c   4.92574358
_cell_angle_alpha   90.00000000
_cell_angle_beta   116.58356535
_cell_angle_gamma   90.00000000
_symmetry_Int_Tables_number   1
_chemical_formula_structural   SiO2
_chemical_formula_sum   'Si4 O8'
_cell_volume   165.80880558
_cell_formula_units_Z   4
loop_
 _symmetry_equiv_pos_site_id
 _symmetry_equiv_pos_as_xyz
  1  'x, y, z'
loop_
 _atom_site_type_symbol
 _atom_site_label
 _atom_site_symmetry_multiplicity
 _atom_site_fract_x
 _atom_site_fract_y
 _atom_site_fract_z
 _atom_site_occupancy
  Si  Si0  1  0.44675300  0.06280200  0.13354650  1.0
  Si  Si1  1  0.22842100  0.43644500  0.21553050  1.0
  Si  Si2  1  0.55324700  0.56280200  0.86645350  1.0
  Si  Si3  1  0.77157900  0.93644500  0.78446950  1.0
  O  O4  1  0.58811500  0.07627100  0.88962450  1.0
  O  O5  1  0.35660000  0.24948200  0.19980650  1.0
  O  O6  1  0.85717600  0.44018800  0.99465650  1.0
  O  O7  1  0.28563200  0.47971100  0.55779150  1.0
  O  O8  1  0.41188500  0.57627100  0.11037550  1.0
  O  O9  1  0.64340000  0.74948200  0.80019350  1.0
  O  O10  1  0.14282400  0.94018800  0.00534350  1.0
  O  O11  1  0.71436800  0.97971100  0.44220850  1.0
