# generated using pymatgen
data_BF3
_symmetry_space_group_name_H-M   'P 1'
_cell_length_a   4.86915527
_cell_length_b   4.86915527
_cell_length_c   19.33207177
_cell_angle_alpha   90.00000000
_cell_angle_beta   90.00000000
_cell_angle_gamma   125.92664309
_symmetry_Int_Tables_number   1
_chemical_formula_structural   BF3
_chemical_formula_sum   'B2 F6'
_cell_volume   371.14766298
_cell_formula_units_Z   2
loop_
 _symmetry_equiv_pos_site_id
 _symmetry_equiv_pos_as_xyz
  1  'x, y, z'
loop_
 _atom_site_type_symbol
 _atom_site_label
 _atom_site_symmetry_multiplicity
 _atom_site_fract_x
 _atom_site_fract_y
 _atom_site_fract_z
 _atom_site_occupancy
  B  B0  1  0.49023279  0.99023280  0.59124527  1
  B  B1  1  0.99023280  0.49023279  0.40875473  1
  F  F2  1  0.23909824  0.00392538  0.61204364  1
  F  F3  1  0.00392537  0.23909824  0.38795636  1
  F  F4  1  0.50392537  0.73909824  0.61204364  1
  F  F5  1  0.73909824  0.50392537  0.38795636  1
  F  F6  1  0.73311338  0.23311338  0.55050264  1
  F  F7  1  0.23311338  0.73311338  0.44949736  1
