# generated using pymatgen
data_H8NF5
_symmetry_space_group_name_H-M   'P 1'
_cell_length_a   5.79744046
_cell_length_b   5.79744046
_cell_length_c   5.79744046
_cell_angle_alpha   97.99174421
_cell_angle_beta   97.99174421
_cell_angle_gamma   136.21481551
_symmetry_Int_Tables_number   1
_chemical_formula_structural   H8NF5
_chemical_formula_sum   'H8 N1 F5'
_cell_volume   125.10699746
_cell_formula_units_Z   1
loop_
 _symmetry_equiv_pos_site_id
 _symmetry_equiv_pos_as_xyz
  1  'x, y, z'
loop_
 _atom_site_type_symbol
 _atom_site_label
 _atom_site_symmetry_multiplicity
 _atom_site_fract_x
 _atom_site_fract_y
 _atom_site_fract_z
 _atom_site_occupancy
  H  H0  1  0.28270221  0.86456784  0.36689078  1
  H  H1  1  0.13543216  0.50232294  0.41813437  1
  H  H2  1  0.76448721  0.84824380  0.20543964  1
  H  H3  1  0.15175620  0.35719584  0.91624341  1
  H  H4  1  0.44095243  0.23551279  0.08375659  1
  H  H5  1  0.08418857  0.71729779  0.58186563  1
  H  H6  1  0.49767706  0.91581143  0.63310922  1
  H  H7  1  0.64280416  0.55904757  0.79456036  1
  N  N8  1  0.25000000  0.75000000  0.50000000  1
  F  F9  1  0.92948415  0.27924351  0.87540729  1
  F  F10  1  0.72075649  0.59616378  0.65024064  1
  F  F11  1  0.40383622  0.05407686  0.12459271  1
  F  F12  1  0.50000000  0.50000000  -0.00000000  1
  F  F13  1  0.94592314  0.07051585  0.34975936  1
