# generated using pymatgen
data_SBr3Cl
_symmetry_space_group_name_H-M   'P 1'
_cell_length_a   5.87261042
_cell_length_b   8.03986434
_cell_length_c   9.01433156
_cell_angle_alpha   89.99090528
_cell_angle_beta   89.73510796
_cell_angle_gamma   89.96905341
_symmetry_Int_Tables_number   1
_chemical_formula_structural   SBr3Cl
_chemical_formula_sum   'S2 Br6 Cl2'
_cell_volume   425.60696894
_cell_formula_units_Z   2
loop_
 _symmetry_equiv_pos_site_id
 _symmetry_equiv_pos_as_xyz
  1  'x, y, z'
loop_
 _atom_site_type_symbol
 _atom_site_label
 _atom_site_symmetry_multiplicity
 _atom_site_fract_x
 _atom_site_fract_y
 _atom_site_fract_z
 _atom_site_occupancy
  S  S0  1  0.84530065  0.70086093  0.47748571  1
  S  S1  1  0.34247635  0.20077267  0.87504875  1
  Br  Br2  1  0.36843347  0.20067739  0.50702549  1
  Br  Br3  1  0.58425301  0.97051929  0.86560238  1
  Br  Br4  1  0.08692523  0.47063480  0.48720351  1
  Br  Br5  1  0.86607654  0.70057611  0.84624498  1
  Br  Br6  1  0.08692893  0.93089964  0.48728169  1
  Br  Br7  1  0.58427210  0.43086513  0.86553703  1
  Cl  Cl8  1  0.74267788  0.70103315  0.26287709  1
  Cl  Cl9  1  0.23640784  0.20087087  0.08957837  1
