# generated using pymatgen
data_Na2SiPbSe4
_symmetry_space_group_name_H-M   'P 1'
_cell_length_a   6.61822205
_cell_length_b   6.61822205
_cell_length_c   6.61591198
_cell_angle_alpha   71.09326895
_cell_angle_beta   71.09326895
_cell_angle_gamma   110.59974834
_symmetry_Int_Tables_number   1
_chemical_formula_structural   Na2SiPbSe4
_chemical_formula_sum   'Na2 Si1 Pb1 Se4'
_cell_volume   223.02711426
_cell_formula_units_Z   1
loop_
 _symmetry_equiv_pos_site_id
 _symmetry_equiv_pos_as_xyz
  1  'x, y, z'
loop_
 _atom_site_type_symbol
 _atom_site_label
 _atom_site_symmetry_multiplicity
 _atom_site_fract_x
 _atom_site_fract_y
 _atom_site_fract_z
 _atom_site_occupancy
  Na  Na0  1  0.74992050  0.24990377  0.49998663  1
  Na  Na1  1  0.24990377  0.74992050  0.49998663  1
  Si  Si2  1  0.50004006  0.50004006  0.99996478  1
  Pb  Pb3  1  0.00001417  0.00001417  0.00007167  1
  Se  Se4  1  0.50342995  0.50342995  0.34579743  1
  Se  Se5  1  0.15092302  0.49668194  0.99999729  1
  Se  Se6  1  0.49668194  0.15092302  0.99999729  1
  Se  Se7  1  0.84911057  0.84911057  0.65415729  1
