# generated using pymatgen
data_NaZnPSe4
_symmetry_space_group_name_H-M   'P 1'
_cell_length_a   6.58471944
_cell_length_b   6.58471944
_cell_length_c   6.58762325
_cell_angle_alpha   59.98935937
_cell_angle_beta   59.98935937
_cell_angle_gamma   89.95354351
_symmetry_Int_Tables_number   1
_chemical_formula_structural   NaZnPSe4
_chemical_formula_sum   'Na1 Zn1 P1 Se4'
_cell_volume   201.98749631
_cell_formula_units_Z   1
loop_
 _symmetry_equiv_pos_site_id
 _symmetry_equiv_pos_as_xyz
  1  'x, y, z'
loop_
 _atom_site_type_symbol
 _atom_site_label
 _atom_site_symmetry_multiplicity
 _atom_site_fract_x
 _atom_site_fract_y
 _atom_site_fract_z
 _atom_site_occupancy
  Na  Na0  1  0.49992734  0.50007267  0.50000000  1
  Zn  Zn1  1  0.99998205  0.00001795  0.50000000  1
  P  P2  1  0.74998494  0.25001506  -0.00000000  1
  Se  Se3  1  0.40120869  0.12694852  0.42241697  1
  Se  Se4  1  0.67628964  0.95072808  0.95048559  1
  Se  Se5  1  0.04927192  0.32371036  0.04951441  1
  Se  Se6  1  0.87305148  0.59879131  0.57758303  1
