# generated using pymatgen
data_NaBi(PSe3)2
_symmetry_space_group_name_H-M   'P 1'
_cell_length_a   6.88292277
_cell_length_b   6.88292277
_cell_length_c   18.64433328
_cell_angle_alpha   90.00000000
_cell_angle_beta   90.00000000
_cell_angle_gamma   120.00000000
_symmetry_Int_Tables_number   1
_chemical_formula_structural   NaBi(PSe3)2
_chemical_formula_sum   'Na1 Bi1 P2 Se6'
_cell_volume   764.93279729
_cell_formula_units_Z   1
loop_
 _symmetry_equiv_pos_site_id
 _symmetry_equiv_pos_as_xyz
  1  'x, y, z'
loop_
 _atom_site_type_symbol
 _atom_site_label
 _atom_site_symmetry_multiplicity
 _atom_site_fract_x
 _atom_site_fract_y
 _atom_site_fract_z
 _atom_site_occupancy
  Na  Na0  1  0.00000000  0.00000000  0.50000000  1
  Bi  Bi1  1  0.33333333  0.66666667  0.50000000  1
  P  P2  1  0.66666667  0.33333333  0.56102460  1
  P  P3  1  0.66666667  0.33333333  0.43897540  1
  Se  Se4  1  0.97587166  0.34035448  0.59773300  1
  Se  Se5  1  0.36448282  0.02412834  0.59773300  1
  Se  Se6  1  0.65964552  0.63551718  0.59773300  1
  Se  Se7  1  0.65964552  0.02412834  0.40226700  1
  Se  Se8  1  0.36448282  0.34035448  0.40226700  1
  Se  Se9  1  0.97587166  0.63551718  0.40226700  1
