# generated using pymatgen
data_CsTl2AgTe2
_symmetry_space_group_name_H-M   'P 1'
_cell_length_a   4.87827394
_cell_length_b   8.35993497
_cell_length_c   11.52001012
_cell_angle_alpha   90.00000000
_cell_angle_beta   90.00000000
_cell_angle_gamma   90.00000000
_symmetry_Int_Tables_number   1
_chemical_formula_structural   CsTl2AgTe2
_chemical_formula_sum   'Cs2 Tl4 Ag2 Te4'
_cell_volume   469.80966217
_cell_formula_units_Z   2
loop_
 _symmetry_equiv_pos_site_id
 _symmetry_equiv_pos_as_xyz
  1  'x, y, z'
loop_
 _atom_site_type_symbol
 _atom_site_label
 _atom_site_symmetry_multiplicity
 _atom_site_fract_x
 _atom_site_fract_y
 _atom_site_fract_z
 _atom_site_occupancy
  Cs  Cs0  1  0.00000000  0.02433013  0.48625633  1
  Cs  Cs1  1  0.00000000  0.52433013  0.51374367  1
  Tl  Tl2  1  0.50000000  0.99862237  0.10496681  1
  Tl  Tl3  1  0.00000000  0.37134589  0.12474271  1
  Tl  Tl4  1  0.50000000  0.49862237  0.89503319  1
  Tl  Tl5  1  0.00000000  0.87134589  0.87525729  1
  Ag  Ag6  1  0.50000000  0.10258600  0.76695832  1
  Ag  Ag7  1  0.50000000  0.60258600  0.23304168  1
  Te  Te8  1  0.00000000  0.26706788  0.78680606  1
  Te  Te9  1  0.50000000  0.28164873  0.30780263  1
  Te  Te10  1  0.00000000  0.76706788  0.21319394  1
  Te  Te11  1  0.50000000  0.78164873  0.69219737  1
