# generated using pymatgen
data_Sr2CdSb2
_symmetry_space_group_name_H-M   'P 1'
_cell_length_a   7.98042291
_cell_length_b   4.79468928
_cell_length_c   9.33588811
_cell_angle_alpha   75.12047493
_cell_angle_beta   90.00000000
_cell_angle_gamma   90.00000000
_symmetry_Int_Tables_number   1
_chemical_formula_structural   Sr2CdSb2
_chemical_formula_sum   'Sr4 Cd2 Sb4'
_cell_volume   345.24663106
_cell_formula_units_Z   2
loop_
 _symmetry_equiv_pos_site_id
 _symmetry_equiv_pos_as_xyz
  1  'x, y, z'
loop_
 _atom_site_type_symbol
 _atom_site_label
 _atom_site_symmetry_multiplicity
 _atom_site_fract_x
 _atom_site_fract_y
 _atom_site_fract_z
 _atom_site_occupancy
  Sr  Sr0  1  0.26549465  0.47244650  0.55507249  1
  Sr  Sr1  1  0.60152078  0.29759292  0.90488761  1
  Sr  Sr2  1  0.10152078  0.70240709  0.09511239  1
  Sr  Sr3  1  0.76549465  0.52755350  0.44492751  1
  Cd  Cd4  1  0.92586497  0.90634632  0.68741055  1
  Cd  Cd5  1  0.42586497  0.09365367  0.31258945  1
  Sb  Sb6  1  0.55236611  0.93321506  0.63360224  1
  Sb  Sb7  1  0.02039512  0.32633298  0.84735207  1
  Sb  Sb8  1  0.52039512  0.67366702  0.15264793  1
  Sb  Sb9  1  0.05236611  0.06678495  0.36639776  1
