# generated using pymatgen
data_YBrCl2
_symmetry_space_group_name_H-M   'P 1'
_cell_length_a   6.99456617
_cell_length_b   6.99456617
_cell_length_c   7.08116319
_cell_angle_alpha   74.87562401
_cell_angle_beta   74.87562401
_cell_angle_gamma   112.95225182
_symmetry_Int_Tables_number   1
_chemical_formula_structural   YBrCl2
_chemical_formula_sum   'Y2 Br2 Cl4'
_cell_volume   281.16632688
_cell_formula_units_Z   2
loop_
 _symmetry_equiv_pos_site_id
 _symmetry_equiv_pos_as_xyz
  1  'x, y, z'
loop_
 _atom_site_type_symbol
 _atom_site_label
 _atom_site_symmetry_multiplicity
 _atom_site_fract_x
 _atom_site_fract_y
 _atom_site_fract_z
 _atom_site_occupancy
  Y  Y0  1  0.47968886  0.29770812  0.58327168  1
  Y  Y1  1  0.29770812  0.47968886  0.08327168  1
  Br  Br2  1  0.24602135  0.07769384  0.36791924  1
  Br  Br3  1  0.07769384  0.24602135  0.86791924  1
  Cl  Cl4  1  0.89387813  0.39158550  0.34302436  1
  Cl  Cl5  1  0.66305455  0.53015263  0.79204873  1
  Cl  Cl6  1  0.39158550  0.89387813  0.84302436  1
  Cl  Cl7  1  0.53015263  0.66305455  0.29204873  1
