# generated using pymatgen
data_H2O
_symmetry_space_group_name_H-M   'P 1'
_cell_length_a   7.82000015
_cell_length_b   7.82000015
_cell_length_c   7.36000000
_cell_angle_alpha   90.00000000
_cell_angle_beta   90.00000000
_cell_angle_gamma   120.00000000
_symmetry_Int_Tables_number   1
_chemical_formula_structural   H2O
_chemical_formula_sum   'H24 O12'
_cell_volume   389.78216975
_cell_formula_units_Z   12
loop_
 _symmetry_equiv_pos_site_id
 _symmetry_equiv_pos_as_xyz
  1  'x, y, z'
loop_
 _atom_site_type_symbol
 _atom_site_label
 _atom_site_symmetry_multiplicity
 _atom_site_fract_x
 _atom_site_fract_y
 _atom_site_fract_z
 _atom_site_occupancy
  H  H0  1  0.33333333  0.33333333  0.67400000  1.0
  H  H1  1  0.66666667  0.00000000  0.67400000  1.0
  H  H2  1  0.00000000  0.66666667  0.67400000  1.0
  H  H3  1  0.66666667  0.66666667  0.17400000  1.0
  H  H4  1  0.33333333  0.00000000  0.17400000  1.0
  H  H5  1  0.00000000  0.33333333  0.17400000  1.0
  H  H6  1  0.43800000  0.43800000  0.52600000  1.0
  H  H7  1  0.56200000  0.00000000  0.52600000  1.0
  H  H8  1  0.00000000  0.56200000  0.52600000  1.0
  H  H9  1  0.56200000  0.56200000  0.02600000  1.0
  H  H10  1  0.43800000  0.00000000  0.02600000  1.0
  H  H11  1  0.00000000  0.43800000  0.02600000  1.0
  H  H12  1  0.77200000  0.66700000  0.47500000  1.0
  H  H13  1  0.33300000  0.10500000  0.47500000  1.0
  H  H14  1  0.89500000  0.22800000  0.47500000  1.0
  H  H15  1  0.66700000  0.77200000  0.47500000  1.0
  H  H16  1  0.10500000  0.33300000  0.47500000  1.0
  H  H17  1  0.22800000  0.89500000  0.47500000  1.0
  H  H18  1  0.22800000  0.33300000  0.97500000  1.0
  H  H19  1  0.66700000  0.89500000  0.97500000  1.0
  H  H20  1  0.10500000  0.77200000  0.97500000  1.0
  H  H21  1  0.33300000  0.22800000  0.97500000  1.0
  H  H22  1  0.89500000  0.66700000  0.97500000  1.0
  H  H23  1  0.77200000  0.10500000  0.97500000  1.0
  O  O24  1  0.33333333  0.33333333  0.56250000  1.0
  O  O25  1  0.66666667  0.00000000  0.56250000  1.0
  O  O26  1  0.00000000  0.66666667  0.56250000  1.0
  O  O27  1  0.66666667  0.66666667  0.06250000  1.0
  O  O28  1  0.33333333  0.00000000  0.06250000  1.0
  O  O29  1  0.00000000  0.33333333  0.06250000  1.0
  O  O30  1  0.66666667  0.66666667  0.43750000  1.0
  O  O31  1  0.33333333  0.00000000  0.43750000  1.0
  O  O32  1  0.00000000  0.33333333  0.43750000  1.0
  O  O33  1  0.33333333  0.33333333  0.93750000  1.0
  O  O34  1  0.66666667  0.00000000  0.93750000  1.0
  O  O35  1  0.00000000  0.66666667  0.93750000  1.0
