# generated using pymatgen
data_LiBF4
_symmetry_space_group_name_H-M   'P 1'
_cell_length_a   5.06102811
_cell_length_b   5.06102811
_cell_length_c   5.06102811
_cell_angle_alpha   125.99272441
_cell_angle_beta   125.99272441
_cell_angle_gamma   79.90009858
_symmetry_Int_Tables_number   1
_chemical_formula_structural   LiBF4
_chemical_formula_sum   'Li1 B1 F4'
_cell_volume   81.95007965
_cell_formula_units_Z   1
loop_
 _symmetry_equiv_pos_site_id
 _symmetry_equiv_pos_as_xyz
  1  'x, y, z'
loop_
 _atom_site_type_symbol
 _atom_site_label
 _atom_site_symmetry_multiplicity
 _atom_site_fract_x
 _atom_site_fract_y
 _atom_site_fract_z
 _atom_site_occupancy
  Li  Li0  1  0.75000000  0.25000000  0.50000000  1
  B  B1  1  0.50000000  0.50000000  0.00000000  1
  F  F2  1  0.45844994  0.40185576  0.64921466  1
  F  F3  1  0.75264110  0.80923528  0.35078534  1
  F  F4  1  0.19076472  0.54155006  0.94340582  1
  F  F5  1  0.59814424  0.24735890  0.05659418  1
