# generated using pymatgen
data_H3Br
_symmetry_space_group_name_H-M   'P 1'
_cell_length_a   15.00000000
_cell_length_b   4.05215299
_cell_length_c   5.03704354
_cell_angle_alpha   89.50971221
_cell_angle_beta   90.00000000
_cell_angle_gamma   90.00000000
_symmetry_Int_Tables_number   1
_chemical_formula_structural   H3Br
_chemical_formula_sum   'H3 Br1'
_cell_volume   306.15185644
_cell_formula_units_Z   1
loop_
 _symmetry_equiv_pos_site_id
 _symmetry_equiv_pos_as_xyz
  1  'x, y, z'
loop_
 _atom_site_type_symbol
 _atom_site_label
 _atom_site_symmetry_multiplicity
 _atom_site_fract_x
 _atom_site_fract_y
 _atom_site_fract_z
 _atom_site_occupancy
  H  H0  1  0.50000000  0.38461055  0.00717073  1
  H  H1  1  0.50000000  0.52308044  0.10697215  1
  H  H2  1  0.50000000  0.17328868  0.37922504  1
  Br  Br3  1  0.50000000  0.91902034  0.58134405  1
