# generated using pymatgen
data_BOF
_symmetry_space_group_name_H-M   'P 1'
_cell_length_a   3.96402885
_cell_length_b   4.76100198
_cell_length_c   16.75951582
_cell_angle_alpha   90.00000000
_cell_angle_beta   90.00000000
_cell_angle_gamma   90.00000000
_symmetry_Int_Tables_number   1
_chemical_formula_structural   BOF
_chemical_formula_sum   'B2 O2 F2'
_cell_volume   316.29813884
_cell_formula_units_Z   2
loop_
 _symmetry_equiv_pos_site_id
 _symmetry_equiv_pos_as_xyz
  1  'x, y, z'
loop_
 _atom_site_type_symbol
 _atom_site_label
 _atom_site_symmetry_multiplicity
 _atom_site_fract_x
 _atom_site_fract_y
 _atom_site_fract_z
 _atom_site_occupancy
  B  B0  1  0.57630083  0.75000000  0.48899458  1
  B  B1  1  0.42369917  0.25000000  0.48899458  1
  O  O2  1  0.50000000  0.00000000  0.45300967  1
  O  O3  1  0.50000000  0.50000000  0.45300967  1
  F  F4  1  0.25065958  0.25000000  0.55799575  1
  F  F5  1  0.74934042  0.75000000  0.55799575  1
