# generated using pymatgen
data_H2S
_symmetry_space_group_name_H-M   'P 1'
_cell_length_a   4.22576733
_cell_length_b   4.87334588
_cell_length_c   5.10189525
_cell_angle_alpha   90.00000000
_cell_angle_beta   90.00000000
_cell_angle_gamma   90.00000000
_symmetry_Int_Tables_number   1
_chemical_formula_structural   H2S
_chemical_formula_sum   'H4 S2'
_cell_volume   105.06652169
_cell_formula_units_Z   2
loop_
 _symmetry_equiv_pos_site_id
 _symmetry_equiv_pos_as_xyz
  1  'x, y, z'
loop_
 _atom_site_type_symbol
 _atom_site_label
 _atom_site_symmetry_multiplicity
 _atom_site_fract_x
 _atom_site_fract_y
 _atom_site_fract_z
 _atom_site_occupancy
  H  H0  1  0.50940843  0.14855471  0.86900290  1
  H  H1  1  0.49059157  0.35144529  0.36900290  1
  H  H2  1  0.49059157  0.64855471  0.63099710  1
  H  H3  1  0.50940843  0.85144529  0.13099710  1
  S  S4  1  0.73030145  0.00000000  0.00000000  1
  S  S5  1  0.26969855  0.50000000  0.50000000  1
