# generated using pymatgen
data_KBrO3
_symmetry_space_group_name_H-M   'P 1'
_cell_length_a   7.42014306
_cell_length_b   7.42014306
_cell_length_c   7.42014306
_cell_angle_alpha   90.00000000
_cell_angle_beta   90.00000000
_cell_angle_gamma   90.00000000
_symmetry_Int_Tables_number   1
_chemical_formula_structural   KBrO3
_chemical_formula_sum   'K4 Br4 O12'
_cell_volume   408.54211756
_cell_formula_units_Z   4
loop_
 _symmetry_equiv_pos_site_id
 _symmetry_equiv_pos_as_xyz
  1  'x, y, z'
loop_
 _atom_site_type_symbol
 _atom_site_label
 _atom_site_symmetry_multiplicity
 _atom_site_fract_x
 _atom_site_fract_y
 _atom_site_fract_z
 _atom_site_occupancy
  K  K0  1  0.07276031  0.07276031  0.07276031  1
  K  K1  1  0.42723969  0.92723969  0.57276031  1
  K  K2  1  0.57276031  0.42723969  0.92723969  1
  K  K3  1  0.92723969  0.57276031  0.42723969  1
  Br  Br4  1  0.41349373  0.41349373  0.41349373  1
  Br  Br5  1  0.08650627  0.58650627  0.91349373  1
  Br  Br6  1  0.91349373  0.08650627  0.58650627  1
  Br  Br7  1  0.58650627  0.91349373  0.08650627  1
  O  O8  1  0.20085111  0.42045861  0.01881704  1
  O  O9  1  0.70085111  0.07954139  0.98118296  1
  O  O10  1  0.79914889  0.92045861  0.48118296  1
  O  O11  1  0.07954139  0.98118296  0.70085111  1
  O  O12  1  0.48118296  0.79914889  0.92045861  1
  O  O13  1  0.98118296  0.70085111  0.07954139  1
  O  O14  1  0.42045861  0.01881704  0.20085111  1
  O  O15  1  0.01881704  0.20085111  0.42045861  1
  O  O16  1  0.29914889  0.57954139  0.51881704  1
  O  O17  1  0.51881704  0.29914889  0.57954139  1
  O  O18  1  0.57954139  0.51881704  0.29914889  1
  O  O19  1  0.92045861  0.48118296  0.79914889  1
