# generated using pymatgen
data_HCl
_symmetry_space_group_name_H-M   'P 1'
_cell_length_a   4.96436767
_cell_length_b   5.11872182
_cell_length_c   18.74431238
_cell_angle_alpha   90.00000000
_cell_angle_beta   90.00000000
_cell_angle_gamma   90.00000000
_symmetry_Int_Tables_number   1
_chemical_formula_structural   HCl
_chemical_formula_sum   'H4 Cl4'
_cell_volume   476.31579155
_cell_formula_units_Z   4
loop_
 _symmetry_equiv_pos_site_id
 _symmetry_equiv_pos_as_xyz
  1  'x, y, z'
loop_
 _atom_site_type_symbol
 _atom_site_label
 _atom_site_symmetry_multiplicity
 _atom_site_fract_x
 _atom_site_fract_y
 _atom_site_fract_z
 _atom_site_occupancy
  H  H0  1  0.80527114  0.89368055  0.59914188  1
  H  H1  1  0.19472887  0.39368055  0.40085812  1
  H  H2  1  0.30527114  0.89368055  0.40085812  1
  H  H3  1  0.69472886  0.39368055  0.59914188  1
  Cl  Cl4  1  0.51447140  0.20395944  0.59987863  1
  Cl  Cl5  1  0.48552861  0.70395944  0.40012137  1
  Cl  Cl6  1  0.01447139  0.20395944  0.40012137  1
  Cl  Cl7  1  0.98552860  0.70395944  0.59987863  1
