# generated using pymatgen
data_Si5(H2Cl)4
_symmetry_space_group_name_H-M   'P 1'
_cell_length_a   7.56292878
_cell_length_b   7.56292878
_cell_length_c   7.56292878
_cell_angle_alpha   103.41936592
_cell_angle_beta   103.41936592
_cell_angle_gamma   122.40134565
_symmetry_Int_Tables_number   1
_chemical_formula_structural   Si5(H2Cl)4
_chemical_formula_sum   'Si5 H8 Cl4'
_cell_volume   320.06164862
_cell_formula_units_Z   1
loop_
 _symmetry_equiv_pos_site_id
 _symmetry_equiv_pos_as_xyz
  1  'x, y, z'
loop_
 _atom_site_type_symbol
 _atom_site_label
 _atom_site_symmetry_multiplicity
 _atom_site_fract_x
 _atom_site_fract_y
 _atom_site_fract_z
 _atom_site_occupancy
  Si  Si0  1  0.25000000  0.75000000  0.50000000  1
  Si  Si1  1  0.12114118  0.74153934  0.75625159  1
  Si  Si2  1  0.98528775  0.36488960  0.24374841  1
  Si  Si3  1  0.63511041  0.87885881  0.62039816  1
  Si  Si4  1  0.25846065  0.01471225  0.37960184  1
  H  H5  1  0.15377446  0.95699201  0.86009577  1
  H  H6  1  0.09689623  0.29367868  0.13990423  1
  H  H7  1  0.70632131  0.84622555  0.80321755  1
  H  H8  1  0.04300800  0.90310377  0.19678245  1
  H  H9  1  0.87433118  0.53278412  0.67583907  1
  H  H10  1  0.85694505  0.19849211  0.32416093  1
  H  H11  1  0.80150789  0.12566881  0.65845293  1
  H  H12  1  0.46721588  0.14305496  0.34154707  1
  Cl  Cl13  1  0.31183317  0.70875579  0.97597152  1
  Cl  Cl14  1  0.73278427  0.33586164  0.02402848  1
  Cl  Cl15  1  0.66413835  0.68816683  0.39692262  1
  Cl  Cl16  1  0.29124421  0.26721574  0.60307738  1
