# generated using pymatgen
data_GeH2Cl
_symmetry_space_group_name_H-M   'P 1'
_cell_length_a   5.52355508
_cell_length_b   5.53304682
_cell_length_c   5.55580559
_cell_angle_alpha   92.94080117
_cell_angle_beta   108.01846109
_cell_angle_gamma   92.95759112
_symmetry_Int_Tables_number   1
_chemical_formula_structural   GeH2Cl
_chemical_formula_sum   'Ge2 H4 Cl2'
_cell_volume   160.84959531
_cell_formula_units_Z   2
loop_
 _symmetry_equiv_pos_site_id
 _symmetry_equiv_pos_as_xyz
  1  'x, y, z'
loop_
 _atom_site_type_symbol
 _atom_site_label
 _atom_site_symmetry_multiplicity
 _atom_site_fract_x
 _atom_site_fract_y
 _atom_site_fract_z
 _atom_site_occupancy
  Ge  Ge0  1  0.30158637  0.66377453  0.14755387  1
  Ge  Ge1  1  0.67339000  0.77188002  0.51879554  1
  H  H2  1  0.14159618  0.87944243  0.05910851  1
  H  H3  1  0.88874577  0.93098148  0.47475946  1
  H  H4  1  0.76170618  0.55634232  0.67832311  1
  H  H5  1  0.34761715  0.50499280  0.93421370  1
  Cl  Cl6  1  0.52789509  0.01140199  0.76706849  1
  Cl  Cl7  1  0.05039018  0.42412629  0.29028533  1
