# generated using pymatgen
data_SiO2
_symmetry_space_group_name_H-M   'P 1'
_cell_length_a   8.16500000
_cell_length_b   9.20000000
_cell_length_c   10.61119292
_cell_angle_alpha   64.30982829
_cell_angle_beta   67.37269453
_cell_angle_gamma   90.00000000
_symmetry_Int_Tables_number   1
_chemical_formula_structural   SiO2
_chemical_formula_sum   'Si12 O24'
_cell_volume   649.54534581
_cell_formula_units_Z   12
loop_
 _symmetry_equiv_pos_site_id
 _symmetry_equiv_pos_as_xyz
  1  'x, y, z'
loop_
 _atom_site_type_symbol
 _atom_site_label
 _atom_site_symmetry_multiplicity
 _atom_site_fract_x
 _atom_site_fract_y
 _atom_site_fract_z
 _atom_site_occupancy
  Si  Si24  1  0.29690000  0.80140000  0.13660000  1.0
  Si  Si25  1  0.93350000  0.69860000  0.86340000  1.0
  Si  Si26  1  0.20310000  0.93800000  0.86340000  1.0
  Si  Si27  1  0.56650000  0.56200000  0.13660000  1.0
  Si  Si28  1  0.90930000  0.06000000  0.05620000  1.0
  Si  Si29  1  0.46550000  0.44000000  0.94380000  1.0
  Si  Si30  1  0.59070000  0.11620000  0.94380000  1.0
  Si  Si31  1  0.03450000  0.38380000  0.05620000  1.0
  Si  Si32  1  0.73370000  0.75670000  0.66060000  1.0
  Si  Si33  1  0.89430000  0.74330000  0.33940000  1.0
  Si  Si34  1  0.76630000  0.41730000  0.33940000  1.0
  Si  Si35  1  0.60570000  0.08270000  0.66060000  1.0
  O  O0  1  0.25000000  0.80860000  0.00000000  1.0
  O  O1  1  0.75000000  0.69140000  0.00000000  1.0
  O  O2  1  0.41390000  0.97730000  0.07860000  1.0
  O  O3  1  0.99250000  0.52270000  0.92140000  1.0
  O  O4  1  0.08610000  0.05590000  0.92140000  1.0
  O  O5  1  0.50750000  0.44410000  0.07860000  1.0
  O  O6  1  0.11020000  0.76580000  0.28380000  1.0
  O  O7  1  0.89400000  0.73420000  0.71620000  1.0
  O  O8  1  0.38980000  0.04960000  0.71620000  1.0
  O  O9  1  0.60600000  0.45040000  0.28380000  1.0
  O  O10  1  0.40840000  0.65840000  0.18320000  1.0
  O  O11  1  0.09160000  0.84160000  0.81680000  1.0
  O  O12  1  0.84720000  0.88510000  0.21000000  1.0
  O  O13  1  0.55720000  0.61490000  0.79000000  1.0
  O  O14  1  0.65280000  0.09510000  0.79000000  1.0
  O  O15  1  0.94280000  0.40490000  0.21000000  1.0
  O  O16  1  0.75000000  0.09450000  0.00000000  1.0
  O  O17  1  0.25000000  0.40550000  0.00000000  1.0
  O  O18  1  0.95300000  0.20300000  0.09400000  1.0
  O  O19  1  0.54700000  0.29700000  0.90600000  1.0
  O  O20  1  0.68400000  0.93400000  0.63200000  1.0
  O  O21  1  0.81600000  0.56600000  0.36800000  1.0
  O  O22  1  0.80020000  0.75000000  0.50000000  1.0
  O  O23  1  0.69980000  0.25000000  0.50000000  1.0
