# generated using pymatgen
data_Sr(IO3)2
_symmetry_space_group_name_H-M   'P 1'
_cell_length_a   7.04138276
_cell_length_b   7.04138276
_cell_length_c   7.04138276
_cell_angle_alpha   49.82258940
_cell_angle_beta   49.82258940
_cell_angle_gamma   49.82258940
_symmetry_Int_Tables_number   1
_chemical_formula_structural   Sr(IO3)2
_chemical_formula_sum   'Sr1 I2 O6'
_cell_volume   187.48137358
_cell_formula_units_Z   1
loop_
 _symmetry_equiv_pos_site_id
 _symmetry_equiv_pos_as_xyz
  1  'x, y, z'
loop_
 _atom_site_type_symbol
 _atom_site_label
 _atom_site_symmetry_multiplicity
 _atom_site_fract_x
 _atom_site_fract_y
 _atom_site_fract_z
 _atom_site_occupancy
  Sr  Sr0  1  0.32556802  0.32556802  0.32556802  1
  I  I1  1  0.79676103  0.79676103  0.79676103  1
  I  I2  1  0.53778177  0.53778177  0.53778177  1
  O  O3  1  0.06218921  0.67447891  0.52442939  1
  O  O4  1  0.52442939  0.06218921  0.67447891  1
  O  O5  1  0.67447891  0.52442939  0.06218921  1
  O  O6  1  0.86890397  0.31330066  0.56226605  1
  O  O7  1  0.56226605  0.86890397  0.31330066  1
  O  O8  1  0.31330066  0.56226605  0.86890397  1
