# generated using pymatgen
data_NaBi(MoO4)2
_symmetry_space_group_name_H-M   'P 1'
_cell_length_a   6.29265001
_cell_length_b   6.29265001
_cell_length_c   6.29265001
_cell_angle_alpha   106.29541714
_cell_angle_beta   106.29541714
_cell_angle_gamma   116.02862474
_symmetry_Int_Tables_number   1
_chemical_formula_structural   NaBi(MoO4)2
_chemical_formula_sum   'Na1 Bi1 Mo2 O8'
_cell_volume   189.90800963
_cell_formula_units_Z   1
loop_
 _symmetry_equiv_pos_site_id
 _symmetry_equiv_pos_as_xyz
  1  'x, y, z'
loop_
 _atom_site_type_symbol
 _atom_site_label
 _atom_site_symmetry_multiplicity
 _atom_site_fract_x
 _atom_site_fract_y
 _atom_site_fract_z
 _atom_site_occupancy
  Na  Na0  1  0.25000000  0.75000000  0.50000000  1
  Bi  Bi1  1  0.00000000  0.00000000  0.00000000  1
  Mo  Mo2  1  0.75000000  0.25000000  0.50000000  1
  Mo  Mo3  1  0.50000000  0.50000000  -0.00000000  1
  O  O4  1  0.90887382  0.60089826  0.69202444  1
  O  O5  1  0.48871042  0.67251651  0.81619391  1
  O  O6  1  0.85632260  0.67251651  0.18380609  1
  O  O7  1  0.90887382  0.21684938  0.30797556  1
  O  O8  1  0.32748349  0.14367740  0.81619391  1
  O  O9  1  0.78315062  0.09112618  0.69202444  1
  O  O10  1  0.39910174  0.09112618  0.30797556  1
  O  O11  1  0.32748349  0.51128958  0.18380609  1
