# generated using pymatgen
data_TlH2Br
_symmetry_space_group_name_H-M   'P 1'
_cell_length_a   4.69945531
_cell_length_b   4.69945531
_cell_length_c   4.40082185
_cell_angle_alpha   81.00484290
_cell_angle_beta   81.00484290
_cell_angle_gamma   71.69151781
_symmetry_Int_Tables_number   1
_chemical_formula_structural   TlH2Br
_chemical_formula_sum   'Tl1 H2 Br1'
_cell_volume   90.53896912
_cell_formula_units_Z   1
loop_
 _symmetry_equiv_pos_site_id
 _symmetry_equiv_pos_as_xyz
  1  'x, y, z'
loop_
 _atom_site_type_symbol
 _atom_site_label
 _atom_site_symmetry_multiplicity
 _atom_site_fract_x
 _atom_site_fract_y
 _atom_site_fract_z
 _atom_site_occupancy
  Tl  Tl0  1  0.52231439  0.52231439  0.56546256  1
  H  H1  1  0.92483441  0.92483442  0.89782615  1
  H  H2  1  0.84381260  0.84381260  0.82252706  1
  Br  Br3  1  0.20901950  0.20901950  0.21418223  1
