# generated using pymatgen
data_SBr
_symmetry_space_group_name_H-M   'P 1'
_cell_length_a   6.45527238
_cell_length_b   6.45527238
_cell_length_c   4.80953036
_cell_angle_alpha   69.26988320
_cell_angle_beta   69.26988320
_cell_angle_gamma   82.53137067
_symmetry_Int_Tables_number   1
_chemical_formula_structural   SBr
_chemical_formula_sum   'S2 Br2'
_cell_volume   175.30266851
_cell_formula_units_Z   2
loop_
 _symmetry_equiv_pos_site_id
 _symmetry_equiv_pos_as_xyz
  1  'x, y, z'
loop_
 _atom_site_type_symbol
 _atom_site_label
 _atom_site_symmetry_multiplicity
 _atom_site_fract_x
 _atom_site_fract_y
 _atom_site_fract_z
 _atom_site_occupancy
  S  S0  1  0.95768000  0.82674000  0.54161000  1
  S  S1  1  0.17326000  0.04232000  0.45839000  1
  Br  Br2  1  0.49757000  0.99833000  0.08691000  1
  Br  Br3  1  0.00167000  0.50243000  0.91309000  1
