# generated using pymatgen
data_NaBi(PS3)2
_symmetry_space_group_name_H-M   'P 1'
_cell_length_a   6.56431234
_cell_length_b   6.56431234
_cell_length_c   18.45585873
_cell_angle_alpha   90.00000000
_cell_angle_beta   90.00000000
_cell_angle_gamma   120.00000000
_symmetry_Int_Tables_number   1
_chemical_formula_structural   NaBi(PS3)2
_chemical_formula_sum   'Na1 Bi1 P2 S6'
_cell_volume   688.72106011
_cell_formula_units_Z   1
loop_
 _symmetry_equiv_pos_site_id
 _symmetry_equiv_pos_as_xyz
  1  'x, y, z'
loop_
 _atom_site_type_symbol
 _atom_site_label
 _atom_site_symmetry_multiplicity
 _atom_site_fract_x
 _atom_site_fract_y
 _atom_site_fract_z
 _atom_site_occupancy
  Na  Na0  1  0.00000000  0.00000000  0.50000000  1
  Bi  Bi1  1  0.33333333  0.66666667  0.50000000  1
  P  P2  1  0.66666667  0.33333333  0.56099761  1
  P  P3  1  0.66666667  0.33333333  0.43900239  1
  S  S4  1  0.96708959  0.33986882  0.59362497  1
  S  S5  1  0.37277923  0.03291041  0.59362497  1
  S  S6  1  0.66013118  0.62722077  0.59362497  1
  S  S7  1  0.66013118  0.03291041  0.40637503  1
  S  S8  1  0.37277923  0.33986882  0.40637503  1
  S  S9  1  0.96708959  0.62722077  0.40637503  1
