# generated using pymatgen
data_PSe3Cl
_symmetry_space_group_name_H-M   'P 1'
_cell_length_a   6.88234191
_cell_length_b   7.42786154
_cell_length_c   7.47905734
_cell_angle_alpha   102.34948080
_cell_angle_beta   90.00315497
_cell_angle_gamma   90.00472752
_symmetry_Int_Tables_number   1
_chemical_formula_structural   PSe3Cl
_chemical_formula_sum   'P2 Se6 Cl2'
_cell_volume   373.49069012
_cell_formula_units_Z   2
loop_
 _symmetry_equiv_pos_site_id
 _symmetry_equiv_pos_as_xyz
  1  'x, y, z'
loop_
 _atom_site_type_symbol
 _atom_site_label
 _atom_site_symmetry_multiplicity
 _atom_site_fract_x
 _atom_site_fract_y
 _atom_site_fract_z
 _atom_site_occupancy
  P  P0  1  0.28302435  0.33033016  0.99342040  1
  P  P1  1  0.78283555  0.76814690  0.35936493  1
  Se  Se2  1  0.45776458  0.71630228  0.37130338  1
  Se  Se3  1  0.31177511  0.04740108  0.89030396  1
  Se  Se4  1  0.91475069  0.70569538  0.07332171  1
  Se  Se5  1  0.95797452  0.38230349  0.98136615  1
  Se  Se6  1  0.81153937  0.05107013  0.46263387  1
  Se  Se7  1  0.41452441  0.39291333  0.27961416  1
  Cl  Cl8  1  0.41126377  0.51095102  0.85445350  1
  Cl  Cl9  1  0.91079465  0.58717722  0.49810393  1
