# generated using pymatgen
data_LiInTe2
_symmetry_space_group_name_H-M   'P 1'
_cell_length_a   7.81229336
_cell_length_b   7.81229336
_cell_length_c   7.81229336
_cell_angle_alpha   130.94051859
_cell_angle_beta   130.94051859
_cell_angle_gamma   71.90759957
_symmetry_Int_Tables_number   1
_chemical_formula_structural   LiInTe2
_chemical_formula_sum   'Li2 In2 Te4'
_cell_volume   266.10316557
_cell_formula_units_Z   2
loop_
 _symmetry_equiv_pos_site_id
 _symmetry_equiv_pos_as_xyz
  1  'x, y, z'
loop_
 _atom_site_type_symbol
 _atom_site_label
 _atom_site_symmetry_multiplicity
 _atom_site_fract_x
 _atom_site_fract_y
 _atom_site_fract_z
 _atom_site_occupancy
  Li  Li0  1  0.50000000  0.50000000  0.00000000  1
  Li  Li1  1  0.25000000  0.75000000  0.50000000  1
  In  In2  1  0.00000000  0.00000000  0.00000000  1
  In  In3  1  0.75000000  0.25000000  0.50000000  1
  Te  Te4  1  0.61851331  0.62500000  0.49351331  1
  Te  Te5  1  0.37500000  0.86851331  0.99351331  1
  Te  Te6  1  0.87500000  0.38148669  0.00648669  1
  Te  Te7  1  0.13148669  0.12500000  0.50648669  1
