# generated using pymatgen
data_Se2S
_symmetry_space_group_name_H-M   'P 1'
_cell_length_a   4.55591034
_cell_length_b   4.61653035
_cell_length_c   4.82742036
_cell_angle_alpha   88.72701003
_cell_angle_beta   88.90810996
_cell_angle_gamma   65.30437997
_symmetry_Int_Tables_number   1
_chemical_formula_structural   Se2S
_chemical_formula_sum   'Se2 S1'
_cell_volume   92.21843440
_cell_formula_units_Z   1
loop_
 _symmetry_equiv_pos_site_id
 _symmetry_equiv_pos_as_xyz
  1  'x, y, z'
loop_
 _atom_site_type_symbol
 _atom_site_label
 _atom_site_symmetry_multiplicity
 _atom_site_fract_x
 _atom_site_fract_y
 _atom_site_fract_z
 _atom_site_occupancy
  Se  Se0  1  0.68571000  0.01662000  0.87999000  1
  Se  Se1  1  0.46591000  0.80140000  0.53534000  1
  S  S2  1  0.29800000  0.18497000  0.20739000  1
