# generated using pymatgen
data_Se2S
_symmetry_space_group_name_H-M   'P 1'
_cell_length_a   9.20937069
_cell_length_b   4.37473033
_cell_length_c   4.80864036
_cell_angle_alpha   89.23494002
_cell_angle_beta   90.00000000
_cell_angle_gamma   90.00000000
_symmetry_Int_Tables_number   1
_chemical_formula_structural   Se2S
_chemical_formula_sum   'Se4 S2'
_cell_volume   193.71570011
_cell_formula_units_Z   2
loop_
 _symmetry_equiv_pos_site_id
 _symmetry_equiv_pos_as_xyz
  1  'x, y, z'
loop_
 _atom_site_type_symbol
 _atom_site_label
 _atom_site_symmetry_multiplicity
 _atom_site_fract_x
 _atom_site_fract_y
 _atom_site_fract_z
 _atom_site_occupancy
  Se  Se0  1  0.57281000  0.03090000  0.04663000  1
  Se  Se1  1  0.07281000  0.96910000  0.95337000  1
  Se  Se2  1  0.16983000  0.29473000  0.30195000  1
  Se  Se3  1  0.66983000  0.70527000  0.69805000  1
  S  S4  1  0.24914000  0.96972000  0.63293000  1
  S  S5  1  0.74914000  0.03028000  0.36707000  1
