# generated using pymatgen
data_RbTl2AgTe2
_symmetry_space_group_name_H-M   'P 1'
_cell_length_a   4.85989782
_cell_length_b   8.20976380
_cell_length_c   11.22534226
_cell_angle_alpha   90.00000000
_cell_angle_beta   90.00000000
_cell_angle_gamma   90.00000000
_symmetry_Int_Tables_number   1
_chemical_formula_structural   RbTl2AgTe2
_chemical_formula_sum   'Rb2 Tl4 Ag2 Te4'
_cell_volume   447.87558881
_cell_formula_units_Z   2
loop_
 _symmetry_equiv_pos_site_id
 _symmetry_equiv_pos_as_xyz
  1  'x, y, z'
loop_
 _atom_site_type_symbol
 _atom_site_label
 _atom_site_symmetry_multiplicity
 _atom_site_fract_x
 _atom_site_fract_y
 _atom_site_fract_z
 _atom_site_occupancy
  Rb  Rb0  1  0.00000000  0.02362068  0.48784448  1
  Rb  Rb1  1  0.00000000  0.52362068  0.51215552  1
  Tl  Tl2  1  0.50000000  0.00196034  0.10643195  1
  Tl  Tl3  1  0.00000000  0.36870966  0.13077373  1
  Tl  Tl4  1  0.50000000  0.50196034  0.89356805  1
  Tl  Tl5  1  0.00000000  0.86870966  0.86922627  1
  Ag  Ag6  1  0.50000000  0.10295412  0.75681825  1
  Ag  Ag7  1  0.50000000  0.60295412  0.24318175  1
  Te  Te8  1  0.00000000  0.27019148  0.78003397  1
  Te  Te9  1  0.50000000  0.27816473  0.32168135  1
  Te  Te10  1  0.00000000  0.77019148  0.21996603  1
  Te  Te11  1  0.50000000  0.77816473  0.67831865  1
