# generated using pymatgen
data_LiSiH6I
_symmetry_space_group_name_H-M   'P 1'
_cell_length_a   4.58730059
_cell_length_b   4.64332152
_cell_length_c   7.76200774
_cell_angle_alpha   93.47800988
_cell_angle_beta   91.43020249
_cell_angle_gamma   117.60525270
_symmetry_Int_Tables_number   1
_chemical_formula_structural   LiSiH6I
_chemical_formula_sum   'Li1 Si1 H6 I1'
_cell_volume   145.97852677
_cell_formula_units_Z   1
loop_
 _symmetry_equiv_pos_site_id
 _symmetry_equiv_pos_as_xyz
  1  'x, y, z'
loop_
 _atom_site_type_symbol
 _atom_site_label
 _atom_site_symmetry_multiplicity
 _atom_site_fract_x
 _atom_site_fract_y
 _atom_site_fract_z
 _atom_site_occupancy
  Li  Li0  1  0.82503184  0.19444053  0.91313136  1
  Si  Si1  1  0.29424942  0.53964362  0.36974652  1
  H  H2  1  0.85845793  0.14408762  0.64248750  1
  H  H3  1  0.24363672  0.82850370  0.41702166  1
  H  H4  1  0.57328138  0.62702661  0.25504822  1
  H  H5  1  0.98428197  0.27332118  0.28298725  1
  H  H6  1  0.37248418  0.42399888  0.53188205  1
  H  H7  1  0.68147017  0.11321001  0.64575611  1
  I  I8  1  0.16686988  0.85571777  0.94202834  1
