# generated using pymatgen
data_AsSeBr
_symmetry_space_group_name_H-M   'P 1'
_cell_length_a   3.81691497
_cell_length_b   3.81691497
_cell_length_c   6.92069896
_cell_angle_alpha   90.00000000
_cell_angle_beta   90.00000000
_cell_angle_gamma   120.00000000
_symmetry_Int_Tables_number   1
_chemical_formula_structural   AsSeBr
_chemical_formula_sum   'As1 Se1 Br1'
_cell_volume   87.31835815
_cell_formula_units_Z   1
loop_
 _symmetry_equiv_pos_site_id
 _symmetry_equiv_pos_as_xyz
  1  'x, y, z'
loop_
 _atom_site_type_symbol
 _atom_site_label
 _atom_site_symmetry_multiplicity
 _atom_site_fract_x
 _atom_site_fract_y
 _atom_site_fract_z
 _atom_site_occupancy
  As  As0  1  0.00000000  0.00000000  0.98211385  1
  Se  Se1  1  0.66666667  0.33333333  0.77477436  1
  Br  Br2  1  0.33333333  0.66666667  0.24311179  1
