# generated using pymatgen
data_LiMgPS4
_symmetry_space_group_name_H-M   'P 1'
_cell_length_a   6.02004829
_cell_length_b   6.02062832
_cell_length_c   6.19473298
_cell_angle_alpha   119.06599456
_cell_angle_beta   119.06092570
_cell_angle_gamma   89.99628654
_symmetry_Int_Tables_number   1
_chemical_formula_structural   LiMgPS4
_chemical_formula_sum   'Li1 Mg1 P1 S4'
_cell_volume   163.15865610
_cell_formula_units_Z   1
loop_
 _symmetry_equiv_pos_site_id
 _symmetry_equiv_pos_as_xyz
  1  'x, y, z'
loop_
 _atom_site_type_symbol
 _atom_site_label
 _atom_site_symmetry_multiplicity
 _atom_site_fract_x
 _atom_site_fract_y
 _atom_site_fract_z
 _atom_site_occupancy
  Li  Li0  1  0.50009290  0.49978649  0.99986410  1
  Mg  Mg1  1  0.99995487  0.00008706  0.00005398  1
  P  P2  1  0.24998172  0.75002195  0.50000923  1
  S  S3  1  0.34229589  0.83886478  0.26563075  1
  S  S4  1  0.16093073  0.07662283  0.73414778  1
  S  S5  1  0.57322325  0.65769884  0.73421354  1
  S  S6  1  0.92352166  0.42691706  0.26608063  1
