# generated using pymatgen
data_NaIO3
_symmetry_space_group_name_H-M   'P 1'
_cell_length_a   6.11990249
_cell_length_b   6.33166736
_cell_length_c   8.67267105
_cell_angle_alpha   90.00000000
_cell_angle_beta   90.00000000
_cell_angle_gamma   90.00000000
_symmetry_Int_Tables_number   1
_chemical_formula_structural   NaIO3
_chemical_formula_sum   'Na4 I4 O12'
_cell_volume   336.05895094
_cell_formula_units_Z   4
loop_
 _symmetry_equiv_pos_site_id
 _symmetry_equiv_pos_as_xyz
  1  'x, y, z'
loop_
 _atom_site_type_symbol
 _atom_site_label
 _atom_site_symmetry_multiplicity
 _atom_site_fract_x
 _atom_site_fract_y
 _atom_site_fract_z
 _atom_site_occupancy
  Na  Na0  1  0.03546884  0.51072081  0.50112489  1
  Na  Na1  1  0.53546884  0.98927919  0.50112489  1
  Na  Na2  1  0.46453116  0.01072081  0.00112489  1
  Na  Na3  1  0.96453116  0.48927919  0.00112489  1
  I  I4  1  0.91552838  0.96973553  0.77555601  1
  I  I5  1  0.41552838  0.53026447  0.77555601  1
  I  I6  1  0.58447162  0.46973553  0.27555601  1
  I  I7  1  0.08447162  0.03026447  0.27555601  1
  O  O8  1  0.17882393  0.35439192  0.75312900  1
  O  O9  1  0.26790132  0.73764776  0.88153137  1
  O  O10  1  0.92211826  0.85798960  0.58045874  1
  O  O11  1  0.42211826  0.64201040  0.58045874  1
  O  O12  1  0.23209868  0.23764776  0.38153137  1
  O  O13  1  0.76790132  0.76235224  0.88153137  1
  O  O14  1  0.73209868  0.26235224  0.38153137  1
  O  O15  1  0.32117607  0.85439192  0.25312900  1
  O  O16  1  0.82117607  0.64560808  0.25312900  1
  O  O17  1  0.67882393  0.14560808  0.75312900  1
  O  O18  1  0.07788174  0.14201040  0.08045874  1
  O  O19  1  0.57788174  0.35798960  0.08045874  1
