# generated using pymatgen
data_HF
_symmetry_space_group_name_H-M   'P 1'
_cell_length_a   3.29137917
_cell_length_b   5.65873721
_cell_length_c   19.69767470
_cell_angle_alpha   90.00000000
_cell_angle_beta   90.00000000
_cell_angle_gamma   90.01143707
_symmetry_Int_Tables_number   1
_chemical_formula_structural   HF
_chemical_formula_sum   'H6 F6'
_cell_volume   366.87016380
_cell_formula_units_Z   6
loop_
 _symmetry_equiv_pos_site_id
 _symmetry_equiv_pos_as_xyz
  1  'x, y, z'
loop_
 _atom_site_type_symbol
 _atom_site_label
 _atom_site_symmetry_multiplicity
 _atom_site_fract_x
 _atom_site_fract_y
 _atom_site_fract_z
 _atom_site_occupancy
  H  H0  1  0.08285299  0.65347443  0.57517587  1
  H  H1  1  0.90130643  0.32046026  0.58274412  1
  H  H2  1  0.58255885  0.84653414  0.42483931  1
  H  H3  1  0.40106070  0.17950212  0.41721688  1
  H  H4  1  0.02114103  0.98209902  0.61472724  1
  H  H5  1  0.52103286  0.51787201  0.38529634  1
  F  F6  1  0.79641796  0.18597658  0.61164356  1
  F  F7  1  0.17733271  0.82824982  0.61928088  1
  F  F8  1  0.29629703  0.31398712  0.38829446  1
  F  F9  1  0.67741090  0.67175686  0.38079209  1
  F  F10  1  0.52092904  0.98765281  0.45532640  1
  F  F11  1  0.02141559  0.51243489  0.54466283  1
