# generated using pymatgen
data_H3SBr
_symmetry_space_group_name_H-M   'P 1'
_cell_length_a   4.29613286
_cell_length_b   5.55851668
_cell_length_c   10.44602652
_cell_angle_alpha   89.99600323
_cell_angle_beta   88.72531150
_cell_angle_gamma   89.83290223
_symmetry_Int_Tables_number   1
_chemical_formula_structural   H3SBr
_chemical_formula_sum   'H6 S2 Br2'
_cell_volume   249.38963955
_cell_formula_units_Z   2
loop_
 _symmetry_equiv_pos_site_id
 _symmetry_equiv_pos_as_xyz
  1  'x, y, z'
loop_
 _atom_site_type_symbol
 _atom_site_label
 _atom_site_symmetry_multiplicity
 _atom_site_fract_x
 _atom_site_fract_y
 _atom_site_fract_z
 _atom_site_occupancy
  H  H0  1  0.45278627  0.48590621  0.19881204  1
  H  H1  1  0.56184999  0.30083328  0.85410009  1
  H  H2  1  0.47072008  0.98914201  0.63466676  1
  H  H3  1  0.38956937  0.98601820  0.15408947  1
  H  H4  1  0.28173368  0.80126716  0.49866860  1
  H  H5  1  0.37336808  0.48928226  0.71794628  1
  S  S6  1  0.28388159  0.30440369  0.79631493  1
  S  S7  1  0.55983906  0.80370811  0.55635417  1
  Br  Br8  1  0.55235127  0.29756277  0.28760679  1
  Br  Br9  1  0.28995560  0.79812230  0.06532587  1
