# generated using pymatgen
data_K2ZnSiS4
_symmetry_space_group_name_H-M   'P 1'
_cell_length_a   6.45791181
_cell_length_b   6.45926369
_cell_length_c   6.45942074
_cell_angle_alpha   115.23047566
_cell_angle_beta   115.22588055
_cell_angle_gamma   98.47988437
_symmetry_Int_Tables_number   1
_chemical_formula_structural   K2ZnSiS4
_chemical_formula_sum   'K2 Zn1 Si1 S4'
_cell_volume   201.87508433
_cell_formula_units_Z   1
loop_
 _symmetry_equiv_pos_site_id
 _symmetry_equiv_pos_as_xyz
  1  'x, y, z'
loop_
 _atom_site_type_symbol
 _atom_site_label
 _atom_site_symmetry_multiplicity
 _atom_site_fract_x
 _atom_site_fract_y
 _atom_site_fract_z
 _atom_site_occupancy
  K  K0  1  0.01434102  0.51431589  0.50002840  1
  K  K1  1  0.76426303  0.76424063  0.99999764  1
  Zn  Zn2  1  0.51404617  0.01402741  0.49997298  1
  Si  Si3  1  0.26406773  0.26407825  0.00000594  1
  S  S4  1  0.90820457  0.27761900  0.91815503  1
  S  S5  1  0.25046815  0.16865644  0.63063457  1
  S  S6  1  0.53804127  0.61986590  0.36932470  1
  S  S7  1  0.35951705  0.99014248  0.08187873  1
