# generated using pymatgen
data_GaHSe
_symmetry_space_group_name_H-M   'P 1'
_cell_length_a   3.81676000
_cell_length_b   5.15833000
_cell_length_c   6.69354000
_cell_angle_alpha   99.46202996
_cell_angle_beta   96.57129000
_cell_angle_gamma   89.96118998
_symmetry_Int_Tables_number   1
_chemical_formula_structural   GaHSe
_chemical_formula_sum   'Ga2 H2 Se2'
_cell_volume   129.11407163
_cell_formula_units_Z   2
loop_
 _symmetry_equiv_pos_site_id
 _symmetry_equiv_pos_as_xyz
  1  'x, y, z'
loop_
 _atom_site_type_symbol
 _atom_site_label
 _atom_site_symmetry_multiplicity
 _atom_site_fract_x
 _atom_site_fract_y
 _atom_site_fract_z
 _atom_site_occupancy
  Ga  Ga0  1  0.96005000  0.97782000  0.39751000  1
  Ga  Ga1  1  0.39709000  0.41057000  0.07708000  1
  H  H2  1  0.36061000  0.56529000  0.89539000  1
  H  H3  1  0.99721000  0.21109000  0.57860000  1
  Se  Se4  1  0.46533000  0.67897000  0.42101000  1
  Se  Se5  1  0.89247000  0.10125000  0.05433000  1
