# generated using pymatgen
data_CaTi(BiO3)2
_symmetry_space_group_name_H-M   'P 1'
_cell_length_a   5.96951930
_cell_length_b   5.96951930
_cell_length_c   5.96951930
_cell_angle_alpha   58.38685496
_cell_angle_beta   58.38685496
_cell_angle_gamma   58.38685496
_symmetry_Int_Tables_number   1
_chemical_formula_structural   CaTi(BiO3)2
_chemical_formula_sum   'Ca1 Ti1 Bi2 O6'
_cell_volume   144.86484573
_cell_formula_units_Z   1
loop_
 _symmetry_equiv_pos_site_id
 _symmetry_equiv_pos_as_xyz
  1  'x, y, z'
loop_
 _atom_site_type_symbol
 _atom_site_label
 _atom_site_symmetry_multiplicity
 _atom_site_fract_x
 _atom_site_fract_y
 _atom_site_fract_z
 _atom_site_occupancy
  Ca  Ca0  1  0.19225341  0.19225341  0.19225341  1
  Ti  Ti1  1  0.68960642  0.68960642  0.68960642  1
  Bi  Bi2  1  0.47804021  0.47804021  0.47804021  1
  Bi  Bi3  1  0.97161383  0.97161383  0.97161383  1
  O  O4  1  0.99295109  0.82521525  0.42338992  1
  O  O5  1  0.42338992  0.99295109  0.82521525  1
  O  O6  1  0.82521525  0.42338992  0.99295109  1
  O  O7  1  0.86639807  0.33651119  0.56248322  1
  O  O8  1  0.56248322  0.86639807  0.33651119  1
  O  O9  1  0.33651119  0.56248322  0.86639807  1
