# generated using pymatgen
data_Mg(GaS2)2
_symmetry_space_group_name_H-M   'P 1'
_cell_length_a   5.55916036
_cell_length_b   5.55921473
_cell_length_c   6.48499616
_cell_angle_alpha   115.37314020
_cell_angle_beta   115.37683451
_cell_angle_gamma   89.98819032
_symmetry_Int_Tables_number   1
_chemical_formula_structural   Mg(GaS2)2
_chemical_formula_sum   'Mg1 Ga2 S4'
_cell_volume   159.42601992
_cell_formula_units_Z   1
loop_
 _symmetry_equiv_pos_site_id
 _symmetry_equiv_pos_as_xyz
  1  'x, y, z'
loop_
 _atom_site_type_symbol
 _atom_site_label
 _atom_site_symmetry_multiplicity
 _atom_site_fract_x
 _atom_site_fract_y
 _atom_site_fract_z
 _atom_site_occupancy
  Mg  Mg0  1  0.25000878  0.74993206  0.50000352  1
  Ga  Ga1  1  0.00001320  0.00002940  0.00001977  1
  Ga  Ga2  1  0.75002046  0.25003977  0.50002685  1
  S  S3  1  0.37936045  0.88225699  0.23588746  1
  S  S4  1  0.64637826  0.62065742  0.76421143  1
  S  S5  1  0.85649257  0.35369938  0.23582777  1
  S  S6  1  0.11779729  0.14345698  0.76409420  1
