# generated using pymatgen
data_BH2NCl2
_symmetry_space_group_name_H-M   'P 1'
_cell_length_a   7.28237458
_cell_length_b   7.28237458
_cell_length_c   4.66499474
_cell_angle_alpha   90.00000000
_cell_angle_beta   90.00000000
_cell_angle_gamma   124.82014242
_symmetry_Int_Tables_number   1
_chemical_formula_structural   BH2NCl2
_chemical_formula_sum   'B2 H4 N2 Cl4'
_cell_volume   203.10149125
_cell_formula_units_Z   2
loop_
 _symmetry_equiv_pos_site_id
 _symmetry_equiv_pos_as_xyz
  1  'x, y, z'
loop_
 _atom_site_type_symbol
 _atom_site_label
 _atom_site_symmetry_multiplicity
 _atom_site_fract_x
 _atom_site_fract_y
 _atom_site_fract_z
 _atom_site_occupancy
  B  B0  1  0.11580100  0.11580100  0.66797928  1
  B  B1  1  0.88419900  0.88419900  0.16797928  1
  H  H2  1  0.10611185  0.23228617  0.24912901  1
  H  H3  1  0.23228617  0.10611185  0.24912901  1
  H  H4  1  0.76771383  0.89388815  0.74912901  1
  H  H5  1  0.89388815  0.76771383  0.74912901  1
  N  N6  1  0.09120814  0.09120814  0.32594212  1
  N  N7  1  0.90879186  0.90879186  0.82594212  1
  Cl  Cl8  1  0.13239903  0.37147356  0.76728629  1
  Cl  Cl9  1  0.37147356  0.13239903  0.76728629  1
  Cl  Cl10  1  0.86760097  0.62852644  0.26728629  1
  Cl  Cl11  1  0.62852644  0.86760097  0.26728629  1
