# generated using pymatgen
data_TiF4
_symmetry_space_group_name_H-M   'P 1'
_cell_length_a   3.90519556
_cell_length_b   5.35925406
_cell_length_c   20.62938548
_cell_angle_alpha   90.00000000
_cell_angle_beta   90.00000000
_cell_angle_gamma   90.00000000
_symmetry_Int_Tables_number   1
_chemical_formula_structural   TiF4
_chemical_formula_sum   'Ti2 F8'
_cell_volume   431.75107111
_cell_formula_units_Z   2
loop_
 _symmetry_equiv_pos_site_id
 _symmetry_equiv_pos_as_xyz
  1  'x, y, z'
loop_
 _atom_site_type_symbol
 _atom_site_label
 _atom_site_symmetry_multiplicity
 _atom_site_fract_x
 _atom_site_fract_y
 _atom_site_fract_z
 _atom_site_occupancy
  Ti  Ti0  1  0.99989029  0.49448477  0.92759757  1
  Ti  Ti1  1  0.00010971  0.99448477  0.07240243  1
  F  F2  1  0.00042716  0.26622953  0.12044947  1
  F  F3  1  0.99957284  0.76622953  0.87955053  1
  F  F4  1  0.00011363  0.27836116  0.86355943  1
  F  F5  1  0.99988637  0.77836116  0.13644057  1
  F  F6  1  0.99981028  0.21932871  0.99312938  1
  F  F7  1  0.00018972  0.71932871  0.00687062  1
  F  F8  1  0.49988212  0.49159480  0.93677719  1
  F  F9  1  0.50011788  0.99159480  0.06322281  1
