# generated using pymatgen
data_SiF4
_symmetry_space_group_name_H-M   'P 1'
_cell_length_a   4.38299513
_cell_length_b   4.94336900
_cell_length_c   17.57275690
_cell_angle_alpha   90.00000000
_cell_angle_beta   90.00000000
_cell_angle_gamma   115.22482356
_symmetry_Int_Tables_number   1
_chemical_formula_structural   SiF4
_chemical_formula_sum   'Si1 F4'
_cell_volume   344.43787743
_cell_formula_units_Z   1
loop_
 _symmetry_equiv_pos_site_id
 _symmetry_equiv_pos_as_xyz
  1  'x, y, z'
loop_
 _atom_site_type_symbol
 _atom_site_label
 _atom_site_symmetry_multiplicity
 _atom_site_fract_x
 _atom_site_fract_y
 _atom_site_fract_z
 _atom_site_occupancy
  Si  Si0  1  0.75885337  0.68448332  0.50003318  1
  F  F1  1  0.69060096  0.97222732  0.48954514  1
  F  F2  1  0.98389659  0.72171606  0.57302441  1
  F  F3  1  0.40833851  0.40326624  0.51077886  1
  F  F4  1  0.94236157  0.64210968  0.42661842  1
