# generated using pymatgen
data_Tl4GaI5
_symmetry_space_group_name_H-M   'P 1'
_cell_length_a   8.58458030
_cell_length_b   8.58458030
_cell_length_c   8.58458030
_cell_angle_alpha   99.67036144
_cell_angle_beta   99.67036144
_cell_angle_gamma   131.60880134
_symmetry_Int_Tables_number   1
_chemical_formula_structural   Tl4GaI5
_chemical_formula_sum   'Tl4 Ga1 I5'
_cell_volume   431.46874111
_cell_formula_units_Z   1
loop_
 _symmetry_equiv_pos_site_id
 _symmetry_equiv_pos_as_xyz
  1  'x, y, z'
loop_
 _atom_site_type_symbol
 _atom_site_label
 _atom_site_symmetry_multiplicity
 _atom_site_fract_x
 _atom_site_fract_y
 _atom_site_fract_z
 _atom_site_occupancy
  Tl  Tl0  1  0.80245708  0.40545389  0.20472561  1
  Tl  Tl1  1  0.59773147  0.80245708  0.39700319  1
  Tl  Tl2  1  0.40545389  0.20072828  0.60299681  1
  Tl  Tl3  1  0.20072828  0.59773147  0.79527439  1
  Ga  Ga4  1  0.01788577  0.01788577  0.00000000  1
  I  I5  1  0.28864815  0.90304761  0.18898800  1
  I  I6  1  0.09966015  0.28864815  0.38560054  1
  I  I7  1  0.90304761  0.71405961  0.61439946  1
  I  I8  1  0.71405961  0.09966015  0.81101200  1
  I  I9  1  0.48062802  0.48062802  0.00000000  1
