# generated using pymatgen
data_LiH2Br
_symmetry_space_group_name_H-M   'P 1'
_cell_length_a   5.02403461
_cell_length_b   4.23498736
_cell_length_c   4.27032733
_cell_angle_alpha   60.42868553
_cell_angle_beta   90.00000000
_cell_angle_gamma   90.00000000
_symmetry_Int_Tables_number   1
_chemical_formula_structural   LiH2Br
_chemical_formula_sum   'Li1 H2 Br1'
_cell_volume   79.02352665
_cell_formula_units_Z   1
loop_
 _symmetry_equiv_pos_site_id
 _symmetry_equiv_pos_as_xyz
  1  'x, y, z'
loop_
 _atom_site_type_symbol
 _atom_site_label
 _atom_site_symmetry_multiplicity
 _atom_site_fract_x
 _atom_site_fract_y
 _atom_site_fract_z
 _atom_site_occupancy
  Li  Li0  1  0.00000000  0.56053586  0.67413437  1
  H  H1  1  0.50000000  0.62740326  0.55160390  1
  H  H2  1  0.50000000  0.51033338  0.75409380  1
  Br  Br3  1  0.00000000  0.89257749  0.01222793  1
