# generated using pymatgen
data_BF3
_symmetry_space_group_name_H-M   'P 1'
_cell_length_a   7.52198551
_cell_length_b   7.52198551
_cell_length_c   16.98763201
_cell_angle_alpha   90.00000000
_cell_angle_beta   90.00000000
_cell_angle_gamma   120.00000000
_symmetry_Int_Tables_number   1
_chemical_formula_structural   BF3
_chemical_formula_sum   'B3 F9'
_cell_volume   832.39308064
_cell_formula_units_Z   3
loop_
 _symmetry_equiv_pos_site_id
 _symmetry_equiv_pos_as_xyz
  1  'x, y, z'
loop_
 _atom_site_type_symbol
 _atom_site_label
 _atom_site_symmetry_multiplicity
 _atom_site_fract_x
 _atom_site_fract_y
 _atom_site_fract_z
 _atom_site_occupancy
  B  B0  1  0.00000000  0.50000000  0.49996217  1
  B  B1  1  0.50000000  0.50000000  0.49996217  1
  B  B2  1  0.50000000  0.00000000  0.49996217  1
  F  F3  1  0.56169924  0.67466608  0.46101106  1
  F  F4  1  0.32533392  0.88703316  0.46101106  1
  F  F5  1  0.11296684  0.43830076  0.46101106  1
  F  F6  1  0.43830076  0.32533392  0.46101106  1
  F  F7  1  0.67466608  0.11296684  0.46101106  1
  F  F8  1  0.88703316  0.56169924  0.46101106  1
  F  F9  1  0.00000000  0.50000000  0.57801570  1
  F  F10  1  0.50000000  0.50000000  0.57801570  1
  F  F11  1  0.50000000  0.00000000  0.57801570  1
