# generated using pymatgen
data_BF3
_symmetry_space_group_name_H-M   'P 1'
_cell_length_a   4.07923548
_cell_length_b   4.08902544
_cell_length_c   20.39251656
_cell_angle_alpha   90.00000000
_cell_angle_beta   90.00000000
_cell_angle_gamma   90.00000000
_symmetry_Int_Tables_number   1
_chemical_formula_structural   BF3
_chemical_formula_sum   'B2 F6'
_cell_volume   340.14916762
_cell_formula_units_Z   2
loop_
 _symmetry_equiv_pos_site_id
 _symmetry_equiv_pos_as_xyz
  1  'x, y, z'
loop_
 _atom_site_type_symbol
 _atom_site_label
 _atom_site_symmetry_multiplicity
 _atom_site_fract_x
 _atom_site_fract_y
 _atom_site_fract_z
 _atom_site_occupancy
  B  B0  1  0.00000000  0.50000000  0.09981716  1
  B  B1  1  0.50000000  0.00000000  0.90018285  1
  F  F2  1  0.19953308  0.30062909  0.13221753  1
  F  F3  1  0.80046692  0.69937091  0.13221753  1
  F  F4  1  0.69953308  0.19937091  0.86778248  1
  F  F5  1  0.30046692  0.80062909  0.86778248  1
  F  F6  1  0.00000000  0.50000000  0.03469006  1
  F  F7  1  0.50000000  0.00000000  0.96530993  1
