# generated using pymatgen
data_MgBr2
_symmetry_space_group_name_H-M   'P 1'
_cell_length_a   3.87401147
_cell_length_b   3.87401147
_cell_length_c   14.40022316
_cell_angle_alpha   90.00000000
_cell_angle_beta   90.00000000
_cell_angle_gamma   120.00000000
_symmetry_Int_Tables_number   1
_chemical_formula_structural   MgBr2
_chemical_formula_sum   'Mg2 Br4'
_cell_volume   187.16371594
_cell_formula_units_Z   2
loop_
 _symmetry_equiv_pos_site_id
 _symmetry_equiv_pos_as_xyz
  1  'x, y, z'
loop_
 _atom_site_type_symbol
 _atom_site_label
 _atom_site_symmetry_multiplicity
 _atom_site_fract_x
 _atom_site_fract_y
 _atom_site_fract_z
 _atom_site_occupancy
  Mg  Mg0  1  0.66666667  0.33333333  0.62503402  1
  Mg  Mg1  1  0.33333333  0.66666667  0.12503402  1
  Br  Br2  1  -0.00000000  -0.00000000  0.73015535  1
  Br  Br3  1  -0.00000000  -0.00000000  0.23015535  1
  Br  Br4  1  0.33333333  0.66666667  0.51981063  1
  Br  Br5  1  0.66666667  0.33333333  0.01981063  1
