# generated using pymatgen
data_SiBr4
_symmetry_space_group_name_H-M   'P 1'
_cell_length_a   7.06475027
_cell_length_b   7.06475027
_cell_length_c   7.06475027
_cell_angle_alpha   126.41360811
_cell_angle_beta   126.41360811
_cell_angle_gamma   79.20940481
_symmetry_Int_Tables_number   1
_chemical_formula_structural   SiBr4
_chemical_formula_sum   'Si1 Br4'
_cell_volume   220.80760661
_cell_formula_units_Z   1
loop_
 _symmetry_equiv_pos_site_id
 _symmetry_equiv_pos_as_xyz
  1  'x, y, z'
loop_
 _atom_site_type_symbol
 _atom_site_label
 _atom_site_symmetry_multiplicity
 _atom_site_fract_x
 _atom_site_fract_y
 _atom_site_fract_z
 _atom_site_occupancy
  Si  Si0  1  0.00000000  0.00000000  0.00000000  1
  Br  Br1  1  0.91713645  0.31812858  0.00000000  1
  Br  Br2  1  0.31812858  0.91713645  1.00000000  1
  Br  Br3  1  0.08286355  0.08286355  0.40099213  1
  Br  Br4  1  0.68187142  0.68187142  0.59900787  1
