# generated using pymatgen
data_LiBCl4
_symmetry_space_group_name_H-M   'P 1'
_cell_length_a   6.07899730
_cell_length_b   6.07899730
_cell_length_c   6.07899730
_cell_angle_alpha   123.24479312
_cell_angle_beta   123.24479312
_cell_angle_gamma   84.46611281
_symmetry_Int_Tables_number   1
_chemical_formula_structural   LiBCl4
_chemical_formula_sum   'Li1 B1 Cl4'
_cell_volume   150.29061202
_cell_formula_units_Z   1
loop_
 _symmetry_equiv_pos_site_id
 _symmetry_equiv_pos_as_xyz
  1  'x, y, z'
loop_
 _atom_site_type_symbol
 _atom_site_label
 _atom_site_symmetry_multiplicity
 _atom_site_fract_x
 _atom_site_fract_y
 _atom_site_fract_z
 _atom_site_occupancy
  Li  Li0  1  0.75000000  0.25000000  0.50000000  1
  B  B1  1  0.50000000  0.50000000  0.00000000  1
  Cl  Cl2  1  0.42690807  0.43212722  0.62392644  1
  Cl  Cl3  1  0.80820078  0.80298163  0.37607356  1
  Cl  Cl4  1  0.19701837  0.57309193  0.00521915  1
  Cl  Cl5  1  0.56787278  0.19179922  0.99478085  1
