# generated using pymatgen
data_HCl
_symmetry_space_group_name_H-M   'P 1'
_cell_length_a   6.56807496
_cell_length_b   7.96269694
_cell_length_c   17.90123365
_cell_angle_alpha   90.00000000
_cell_angle_beta   90.00000000
_cell_angle_gamma   90.00239974
_symmetry_Int_Tables_number   1
_chemical_formula_structural   HCl
_chemical_formula_sum   'H6 Cl6'
_cell_volume   936.22718598
_cell_formula_units_Z   6
loop_
 _symmetry_equiv_pos_site_id
 _symmetry_equiv_pos_as_xyz
  1  'x, y, z'
loop_
 _atom_site_type_symbol
 _atom_site_label
 _atom_site_symmetry_multiplicity
 _atom_site_fract_x
 _atom_site_fract_y
 _atom_site_fract_z
 _atom_site_occupancy
  H  H0  1  0.61381905  0.49014253  0.44847730  1
  H  H1  1  0.80034407  0.88852220  0.50668260  1
  H  H2  1  0.30044890  0.61149649  0.50664689  1
  H  H3  1  0.11372116  0.00969362  0.44843358  1
  H  H4  1  0.45028595  0.03238448  0.54182058  1
  H  H5  1  0.95037125  0.46761963  0.54181363  1
  Cl  Cl6  1  0.19700560  0.63656220  0.56898375  1
  Cl  Cl7  1  0.31018376  0.14629636  0.52702183  1
  Cl  Cl8  1  0.81025812  0.35367295  0.52708659  1
  Cl  Cl9  1  0.69702026  0.86356610  0.56905111  1
  Cl  Cl10  1  0.97956971  0.92980920  0.40698219  1
  Cl  Cl11  1  0.47974428  0.57003895  0.40699994  1
