# generated using pymatgen
data_N2O
_symmetry_space_group_name_H-M   'P 1'
_cell_length_a   3.76773520
_cell_length_b   3.77937979
_cell_length_c   3.84884598
_cell_angle_alpha   94.57997898
_cell_angle_beta   96.55592234
_cell_angle_gamma   98.71844114
_symmetry_Int_Tables_number   1
_chemical_formula_structural   N2O
_chemical_formula_sum   'N2 O1'
_cell_volume   53.55483159
_cell_formula_units_Z   1
loop_
 _symmetry_equiv_pos_site_id
 _symmetry_equiv_pos_as_xyz
  1  'x, y, z'
loop_
 _atom_site_type_symbol
 _atom_site_label
 _atom_site_symmetry_multiplicity
 _atom_site_fract_x
 _atom_site_fract_y
 _atom_site_fract_z
 _atom_site_occupancy
  N  N0  1  0.53012070  0.96454576  0.77890927  1
  N  N1  1  0.73133796  0.16116273  0.97471182  1
  O  O2  1  0.31906134  0.75848151  0.57386891  1
