# generated using pymatgen
data_N2O
_symmetry_space_group_name_H-M   'P 1'
_cell_length_a   3.67447209
_cell_length_b   3.84522225
_cell_length_c   4.14599005
_cell_angle_alpha   78.10850415
_cell_angle_beta   84.06872834
_cell_angle_gamma   72.06215663
_symmetry_Int_Tables_number   1
_chemical_formula_structural   N2O
_chemical_formula_sum   'N2 O1'
_cell_volume   54.48582124
_cell_formula_units_Z   1
loop_
 _symmetry_equiv_pos_site_id
 _symmetry_equiv_pos_as_xyz
  1  'x, y, z'
loop_
 _atom_site_type_symbol
 _atom_site_label
 _atom_site_symmetry_multiplicity
 _atom_site_fract_x
 _atom_site_fract_y
 _atom_site_fract_z
 _atom_site_occupancy
  N  N0  1  0.50856383  0.53031569  0.85006197  1
  N  N1  1  0.32070951  0.74591406  0.65493570  1
  O  O2  1  0.70601666  0.30430024  0.05411233  1
