# generated using pymatgen
data_ZnBrCl
_symmetry_space_group_name_H-M   'P 1'
_cell_length_a   7.09420123
_cell_length_b   7.09420123
_cell_length_c   7.09420123
_cell_angle_alpha   129.27475975
_cell_angle_beta   127.27240468
_cell_angle_gamma   76.19341186
_symmetry_Int_Tables_number   1
_chemical_formula_structural   ZnBrCl
_chemical_formula_sum   'Zn2 Br2 Cl2'
_cell_volume   213.78338869
_cell_formula_units_Z   2
loop_
 _symmetry_equiv_pos_site_id
 _symmetry_equiv_pos_as_xyz
  1  'x, y, z'
loop_
 _atom_site_type_symbol
 _atom_site_label
 _atom_site_symmetry_multiplicity
 _atom_site_fract_x
 _atom_site_fract_y
 _atom_site_fract_z
 _atom_site_occupancy
  Zn  Zn0  1  -0.00000000  0.34018151  0.34018151  1
  Zn  Zn1  1  0.50000000  0.34018151  0.84018151  1
  Br  Br2  1  0.12885357  0.00529020  0.37643663  1
  Br  Br3  1  0.87114643  0.24758306  0.87643663  1
  Cl  Cl4  1  0.64520953  0.43825139  0.29304186  1
  Cl  Cl5  1  0.35479047  0.64783233  0.79304186  1
