# generated using pymatgen
data_PBr3
_symmetry_space_group_name_H-M   'P 1'
_cell_length_a   7.03718602
_cell_length_b   7.03718602
_cell_length_c   8.21132667
_cell_angle_alpha   90.00000000
_cell_angle_beta   90.00000000
_cell_angle_gamma   120.00000000
_symmetry_Int_Tables_number   1
_chemical_formula_structural   PBr3
_chemical_formula_sum   'P2 Br6'
_cell_volume   352.16162127
_cell_formula_units_Z   2
loop_
 _symmetry_equiv_pos_site_id
 _symmetry_equiv_pos_as_xyz
  1  'x, y, z'
loop_
 _atom_site_type_symbol
 _atom_site_label
 _atom_site_symmetry_multiplicity
 _atom_site_fract_x
 _atom_site_fract_y
 _atom_site_fract_z
 _atom_site_occupancy
  P  P0  1  0.66666667  0.33333333  0.87265633  1
  P  P1  1  0.33333333  0.66666667  0.37265633  1
  Br  Br2  1  0.94207479  0.31134590  0.99378156  1
  Br  Br3  1  0.05792521  0.68865410  0.49378156  1
  Br  Br4  1  0.63072889  0.94207479  0.49378156  1
  Br  Br5  1  0.68865410  0.63072889  0.99378156  1
  Br  Br6  1  0.36927111  0.05792521  0.99378156  1
  Br  Br7  1  0.31134590  0.36927111  0.49378156  1
