# generated using pymatgen
data_PIBr2
_symmetry_space_group_name_H-M   'P 1'
_cell_length_a   5.27536170
_cell_length_b   6.00444376
_cell_length_c   7.07395244
_cell_angle_alpha   111.35455735
_cell_angle_beta   108.36330332
_cell_angle_gamma   98.34083749
_symmetry_Int_Tables_number   1
_chemical_formula_structural   PIBr2
_chemical_formula_sum   'P1 I1 Br2'
_cell_volume   189.31440681
_cell_formula_units_Z   1
loop_
 _symmetry_equiv_pos_site_id
 _symmetry_equiv_pos_as_xyz
  1  'x, y, z'
loop_
 _atom_site_type_symbol
 _atom_site_label
 _atom_site_symmetry_multiplicity
 _atom_site_fract_x
 _atom_site_fract_y
 _atom_site_fract_z
 _atom_site_occupancy
  P  P0  1  0.58300146  0.88357655  0.52801676  1
  I  I1  1  0.73117838  0.29654342  0.52843747  1
  Br  Br2  1  0.16738039  0.69820598  0.23681838  1
  Br  Br3  1  0.45968977  0.98457405  0.81862739  1
