# generated using pymatgen
data_NaMgPS4
_symmetry_space_group_name_H-M   'P 1'
_cell_length_a   6.37784751
_cell_length_b   6.37810098
_cell_length_c   6.37835688
_cell_angle_alpha   90.66893323
_cell_angle_beta   119.60098143
_cell_angle_gamma   119.60449228
_symmetry_Int_Tables_number   1
_chemical_formula_structural   NaMgPS4
_chemical_formula_sum   'Na1 Mg1 P1 S4'
_cell_volume   184.58821661
_cell_formula_units_Z   1
loop_
 _symmetry_equiv_pos_site_id
 _symmetry_equiv_pos_as_xyz
  1  'x, y, z'
loop_
 _atom_site_type_symbol
 _atom_site_label
 _atom_site_symmetry_multiplicity
 _atom_site_fract_x
 _atom_site_fract_y
 _atom_site_fract_z
 _atom_site_occupancy
  Na  Na0  1  0.00008621  0.50006547  0.50021190  1
  Mg  Mg1  1  0.00002503  0.00006937  0.99999092  1
  P  P2  1  0.49998008  0.74998331  0.24996938  1
  S  S3  1  0.10924038  0.68829441  0.15275983  1
  S  S4  1  0.53559341  0.84741878  0.95652373  1
  S  S5  1  0.46436233  0.42086867  0.31158536  1
  S  S6  1  0.89072154  0.04329998  0.57892086  1
