# generated using pymatgen
data_Li2GaBS4
_symmetry_space_group_name_H-M   'P 1'
_cell_length_a   6.08935564
_cell_length_b   6.08935564
_cell_length_c   5.50477245
_cell_angle_alpha   63.13040689
_cell_angle_beta   63.13040689
_cell_angle_gamma   100.53043404
_symmetry_Int_Tables_number   1
_chemical_formula_structural   Li2GaBS4
_chemical_formula_sum   'Li2 Ga1 B1 S4'
_cell_volume   141.91700382
_cell_formula_units_Z   1
loop_
 _symmetry_equiv_pos_site_id
 _symmetry_equiv_pos_as_xyz
  1  'x, y, z'
loop_
 _atom_site_type_symbol
 _atom_site_label
 _atom_site_symmetry_multiplicity
 _atom_site_fract_x
 _atom_site_fract_y
 _atom_site_fract_z
 _atom_site_occupancy
  Li  Li0  1  0.98595772  0.01404228  0.50000000  1
  Li  Li1  1  0.23589941  0.76410058  0.00000000  1
  Ga  Ga2  1  0.48584556  0.51415444  0.50000000  1
  B  B3  1  0.73589359  0.26410641  0.00000000  1
  S  S4  1  0.06504936  0.36632591  0.58223017  1
  S  S5  1  0.82451181  0.57961653  0.01376342  1
  S  S6  1  0.42038347  0.17548819  0.98623658  1
  S  S7  1  0.63367409  0.93495064  0.41776983  1
