# generated using pymatgen
data_Ga3Bi(BO3)4
_symmetry_space_group_name_H-M   'P 1'
_cell_length_a   6.09714610
_cell_length_b   6.09714610
_cell_length_c   6.09714610
_cell_angle_alpha   103.97125393
_cell_angle_beta   103.97125393
_cell_angle_gamma   103.97125393
_symmetry_Int_Tables_number   1
_chemical_formula_structural   Ga3Bi(BO3)4
_chemical_formula_sum   'Ga3 Bi1 B4 O12'
_cell_volume   202.35019657
_cell_formula_units_Z   1
loop_
 _symmetry_equiv_pos_site_id
 _symmetry_equiv_pos_as_xyz
  1  'x, y, z'
loop_
 _atom_site_type_symbol
 _atom_site_label
 _atom_site_symmetry_multiplicity
 _atom_site_fract_x
 _atom_site_fract_y
 _atom_site_fract_z
 _atom_site_occupancy
  Ga  Ga0  1  -0.00000000  0.44824212  0.55175788  1
  Ga  Ga1  1  0.55175788  -0.00000000  0.44824212  1
  Ga  Ga2  1  0.44824212  0.55175788  -0.00000000  1
  Bi  Bi3  1  0.00000000  0.00000000  0.00000000  1
  B  B4  1  0.50000000  0.05353543  0.94646457  1
  B  B5  1  0.94646457  0.50000000  0.05353543  1
  B  B6  1  0.05353543  0.94646457  0.50000000  1
  B  B7  1  0.50000000  0.50000000  0.50000000  1
  O  O8  1  0.64498470  0.35501530  0.50000000  1
  O  O9  1  0.09106678  0.50000000  0.90893322  1
  O  O10  1  0.50000000  0.90893322  0.09106678  1
  O  O11  1  0.90893322  0.09106678  0.50000000  1
  O  O12  1  0.21334815  0.97104348  0.37448684  1
  O  O13  1  0.97104348  0.37448684  0.21334815  1
  O  O14  1  0.37448684  0.21334815  0.97104348  1
  O  O15  1  0.02895652  0.78665185  0.62551316  1
  O  O16  1  0.78665185  0.62551316  0.02895652  1
  O  O17  1  0.62551316  0.02895652  0.78665185  1
  O  O18  1  0.35501530  0.50000000  0.64498470  1
  O  O19  1  0.50000000  0.64498470  0.35501530  1
