# generated using pymatgen
data_HF
_symmetry_space_group_name_H-M   'P 1'
_cell_length_a   19.99848154
_cell_length_b   5.97738410
_cell_length_c   6.08782565
_cell_angle_alpha   89.94519500
_cell_angle_beta   90.00000000
_cell_angle_gamma   90.00000000
_symmetry_Int_Tables_number   1
_chemical_formula_structural   HF
_chemical_formula_sum   'H12 F12'
_cell_volume   727.72985684
_cell_formula_units_Z   12
loop_
 _symmetry_equiv_pos_site_id
 _symmetry_equiv_pos_as_xyz
  1  'x, y, z'
loop_
 _atom_site_type_symbol
 _atom_site_label
 _atom_site_symmetry_multiplicity
 _atom_site_fract_x
 _atom_site_fract_y
 _atom_site_fract_z
 _atom_site_occupancy
  H  H0  1  0.93114595  0.46434765  0.69345467  1
  H  H1  1  0.03596895  0.48697575  0.73713032  1
  H  H2  1  0.96403105  0.98697575  0.73713032  1
  H  H3  1  0.06885405  0.96434765  0.69345467  1
  H  H4  1  0.96401351  0.01300844  0.23711646  1
  H  H5  1  0.06885246  0.03572281  0.19341264  1
  H  H6  1  0.93114754  0.53572281  0.19341264  1
  H  H7  1  0.03598648  0.51300844  0.23711646  1
  H  H8  1  0.88876336  0.18999887  0.77717949  1
  H  H9  1  0.11123664  0.68999887  0.77717949  1
  H  H10  1  0.88873948  0.80988708  0.27706357  1
  H  H11  1  0.11126052  0.30988708  0.27706357  1
  F  F12  1  0.91759939  0.02403924  0.29909136  1
  F  F13  1  0.12495690  0.14956701  0.25713418  1
  F  F14  1  0.87504309  0.64956701  0.25713418  1
  F  F15  1  0.08240061  0.52403924  0.29909136  1
  F  F16  1  0.87504538  0.35043457  0.75725190  1
  F  F17  1  0.08237849  0.47583828  0.79918317  1
  F  F18  1  0.91762150  0.97583828  0.79918317  1
  F  F19  1  0.12495462  0.85043457  0.75725190  1
  F  F20  1  0.97362574  0.54124961  0.64080280  1
  F  F21  1  0.02637425  0.04124961  0.64080280  1
  F  F22  1  0.97360070  0.45884452  0.14085553  1
  F  F23  1  0.02639931  0.95884452  0.14085553  1
