# generated using pymatgen
data_H3F2
_symmetry_space_group_name_H-M   'P 1'
_cell_length_a   4.21532413
_cell_length_b   4.24661302
_cell_length_c   4.52055554
_cell_angle_alpha   69.92280101
_cell_angle_beta   70.61337410
_cell_angle_gamma   66.97391614
_symmetry_Int_Tables_number   1
_chemical_formula_structural   H3F2
_chemical_formula_sum   'H6 F4'
_cell_volume   68.09534385
_cell_formula_units_Z   2
loop_
 _symmetry_equiv_pos_site_id
 _symmetry_equiv_pos_as_xyz
  1  'x, y, z'
loop_
 _atom_site_type_symbol
 _atom_site_label
 _atom_site_symmetry_multiplicity
 _atom_site_fract_x
 _atom_site_fract_y
 _atom_site_fract_z
 _atom_site_occupancy
  H  H0  1  0.76939900  0.31201400  0.21131300  1.0
  H  H1  1  0.75355100  0.79566000  0.25524800  1.0
  H  H2  1  0.27320800  0.70900900  0.43601500  1.0
  H  H3  1  0.30083100  0.72463800  0.58263200  1.0
  H  H4  1  0.20347600  0.24517000  0.74210600  1.0
  H  H5  1  0.68934900  0.22771900  0.78379800  1.0
  F  F6  1  0.77473200  0.55779400  0.09367400  1.0
  F  F7  1  0.76285600  0.96674300  0.35871900  1.0
  F  F8  1  0.02686800  0.24995000  0.63313200  1.0
  F  F9  1  0.44574100  0.21129700  0.90335500  1.0
