# generated using pymatgen
data_CaZr(BiO3)2
_symmetry_space_group_name_H-M   'P 1'
_cell_length_a   6.11071868
_cell_length_b   6.11071868
_cell_length_c   6.11071868
_cell_angle_alpha   58.22647868
_cell_angle_beta   58.22647867
_cell_angle_gamma   58.22647867
_symmetry_Int_Tables_number   1
_chemical_formula_structural   CaZr(BiO3)2
_chemical_formula_sum   'Ca1 Zr1 Bi2 O6'
_cell_volume   154.79142240
_cell_formula_units_Z   1
loop_
 _symmetry_equiv_pos_site_id
 _symmetry_equiv_pos_as_xyz
  1  'x, y, z'
loop_
 _atom_site_type_symbol
 _atom_site_label
 _atom_site_symmetry_multiplicity
 _atom_site_fract_x
 _atom_site_fract_y
 _atom_site_fract_z
 _atom_site_occupancy
  Ca  Ca0  1  0.19283871  0.19283871  0.19283871  1
  Zr  Zr1  1  0.68925778  0.68925778  0.68925778  1
  Bi  Bi2  1  0.47877740  0.47877740  0.47877740  1
  Bi  Bi3  1  0.97567366  0.97567366  0.97567366  1
  O  O4  1  0.02072970  0.81960339  0.40323504  1
  O  O5  1  0.40323504  0.02072970  0.81960339  1
  O  O6  1  0.81960339  0.40323504  0.02072970  1
  O  O7  1  0.86468518  0.32677953  0.56699185  1
  O  O8  1  0.56699185  0.86468518  0.32677953  1
  O  O9  1  0.32677953  0.56699185  0.86468518  1
