# generated using pymatgen
data_Na2GaBS4
_symmetry_space_group_name_H-M   'P 1'
_cell_length_a   6.07104000
_cell_length_b   6.07210628
_cell_length_c   6.07245002
_cell_angle_alpha   119.00116466
_cell_angle_beta   118.99677518
_cell_angle_gamma   91.73575466
_symmetry_Int_Tables_number   1
_chemical_formula_structural   Na2GaBS4
_chemical_formula_sum   'Na2 Ga1 B1 S4'
_cell_volume   160.61397692
_cell_formula_units_Z   1
loop_
 _symmetry_equiv_pos_site_id
 _symmetry_equiv_pos_as_xyz
  1  'x, y, z'
loop_
 _atom_site_type_symbol
 _atom_site_label
 _atom_site_symmetry_multiplicity
 _atom_site_fract_x
 _atom_site_fract_y
 _atom_site_fract_z
 _atom_site_occupancy
  Na  Na0  1  0.01425276  0.51421217  0.50000295  1
  Na  Na1  1  0.76441883  0.76430208  0.00001734  1
  Ga  Ga2  1  0.51405587  0.01406029  0.49996179  1
  B  B3  1  0.26406765  0.26407132  0.00001644  1
  S  S4  1  0.36445335  0.98334007  0.05323224  1
  S  S5  1  0.54478657  0.59801094  0.38111017  1
  S  S6  1  0.21687921  0.16372936  0.61891859  1
  S  S7  1  0.93003577  0.31122478  0.94674350  1
