# generated using pymatgen
data_Mg2NbGaN4
_symmetry_space_group_name_H-M   'P 1'
_cell_length_a   5.28822120
_cell_length_b   5.88714476
_cell_length_c   6.69157094
_cell_angle_alpha   90.00000000
_cell_angle_beta   90.00000000
_cell_angle_gamma   90.00000000
_symmetry_Int_Tables_number   1
_chemical_formula_structural   Mg2NbGaN4
_chemical_formula_sum   'Mg4 Nb2 Ga2 N8'
_cell_volume   208.32549106
_cell_formula_units_Z   2
loop_
 _symmetry_equiv_pos_site_id
 _symmetry_equiv_pos_as_xyz
  1  'x, y, z'
loop_
 _atom_site_type_symbol
 _atom_site_label
 _atom_site_symmetry_multiplicity
 _atom_site_fract_x
 _atom_site_fract_y
 _atom_site_fract_z
 _atom_site_occupancy
  Mg  Mg0  1  0.49135644  0.33248720  0.25006837  1
  Mg  Mg1  1  0.49135644  0.33248720  0.74993163  1
  Mg  Mg2  1  0.99135644  0.66751280  0.75006837  1
  Mg  Mg3  1  0.99135644  0.66751280  0.24993163  1
  Nb  Nb4  1  0.49633003  0.83923074  0.50000000  1
  Nb  Nb5  1  0.99633003  0.16076926  0.00000000  1
  Ga  Ga6  1  0.99668221  0.16720746  0.50000000  1
  Ga  Ga7  1  0.49668221  0.83279254  0.00000000  1
  N  N8  1  0.36598462  0.14837784  0.00000000  1
  N  N9  1  0.86598462  0.85162216  0.50000000  1
  N  N10  1  0.37013652  0.15118058  0.50000000  1
  N  N11  1  0.87013652  0.84881942  0.00000000  1
  N  N12  1  0.39404887  0.67886404  0.74928659  1
  N  N13  1  0.89404887  0.32113596  0.24928659  1
  N  N14  1  0.89404887  0.32113596  0.75071341  1
  N  N15  1  0.39404887  0.67886404  0.25071341  1
