# generated using pymatgen
data_Li2BeGeS4
_symmetry_space_group_name_H-M   'P 1'
_cell_length_a   5.55470856
_cell_length_b   5.55546587
_cell_length_c   6.24094479
_cell_angle_alpha   116.42757721
_cell_angle_beta   116.41727724
_cell_angle_gamma   90.00056540
_symmetry_Int_Tables_number   1
_chemical_formula_structural   Li2BeGeS4
_chemical_formula_sum   'Li2 Be1 Ge1 S4'
_cell_volume   149.67191133
_cell_formula_units_Z   1
loop_
 _symmetry_equiv_pos_site_id
 _symmetry_equiv_pos_as_xyz
  1  'x, y, z'
loop_
 _atom_site_type_symbol
 _atom_site_label
 _atom_site_symmetry_multiplicity
 _atom_site_fract_x
 _atom_site_fract_y
 _atom_site_fract_z
 _atom_site_occupancy
  Li  Li0  1  0.98579516  0.48573369  0.97157799  1
  Li  Li1  1  0.23593851  0.23574009  0.47164306  1
  Be  Be2  1  0.48583164  0.98614513  0.97207047  1
  Ge  Ge3  1  0.73597449  0.73585738  0.47177709  1
  S  S4  1  0.12536486  0.65726289  0.73570584  1
  S  S5  1  0.81446034  0.86137274  0.20779307  1
  S  S6  1  0.39328569  0.34658223  0.20782468  1
  S  S7  1  0.61040131  0.07835886  0.73570980  1
