# generated using pymatgen
data_GaSeCl
_symmetry_space_group_name_H-M   'P 1'
_cell_length_a   3.85494417
_cell_length_b   5.60898158
_cell_length_c   8.07073200
_cell_angle_alpha   90.00000000
_cell_angle_beta   90.00000000
_cell_angle_gamma   90.00000000
_symmetry_Int_Tables_number   1
_chemical_formula_structural   GaSeCl
_chemical_formula_sum   'Ga2 Se2 Cl2'
_cell_volume   174.50787602
_cell_formula_units_Z   2
loop_
 _symmetry_equiv_pos_site_id
 _symmetry_equiv_pos_as_xyz
  1  'x, y, z'
loop_
 _atom_site_type_symbol
 _atom_site_label
 _atom_site_symmetry_multiplicity
 _atom_site_fract_x
 _atom_site_fract_y
 _atom_site_fract_z
 _atom_site_occupancy
  Ga  Ga0  1  0.00000000  0.83979190  0.61545278  1
  Ga  Ga1  1  0.50000000  0.33979190  0.38454722  1
  Se  Se2  1  0.00000000  0.06441628  0.35401144  1
  Se  Se3  1  0.50000000  0.56441628  0.64598856  1
  Cl  Cl4  1  0.00000000  0.06200281  0.83505694  1
  Cl  Cl5  1  0.50000000  0.56200281  0.16494306  1
