# generated using pymatgen
data_BeZnSe2
_symmetry_space_group_name_H-M   'P 1'
_cell_length_a   6.33141944
_cell_length_b   6.63485932
_cell_length_c   7.70944823
_cell_angle_alpha   90.00000000
_cell_angle_beta   90.00000000
_cell_angle_gamma   90.00000000
_symmetry_Int_Tables_number   1
_chemical_formula_structural   BeZnSe2
_chemical_formula_sum   'Be4 Zn4 Se8'
_cell_volume   323.85909703
_cell_formula_units_Z   4
loop_
 _symmetry_equiv_pos_site_id
 _symmetry_equiv_pos_as_xyz
  1  'x, y, z'
loop_
 _atom_site_type_symbol
 _atom_site_label
 _atom_site_symmetry_multiplicity
 _atom_site_fract_x
 _atom_site_fract_y
 _atom_site_fract_z
 _atom_site_occupancy
  Be  Be0  1  0.99977415  0.07729180  0.87428738  1
  Be  Be1  1  0.49977415  0.92270820  0.12571262  1
  Be  Be2  1  0.49977415  0.42270820  0.37428738  1
  Be  Be3  1  0.99977415  0.57729180  0.62571262  1
  Zn  Zn4  1  0.99872443  0.08766547  0.37624752  1
  Zn  Zn5  1  0.49872443  0.91233453  0.62375248  1
  Zn  Zn6  1  0.49872443  0.41233453  0.87624752  1
  Zn  Zn7  1  0.99872443  0.58766547  0.12375248  1
  Se  Se8  1  0.10793882  0.40108289  0.85941928  1
  Se  Se9  1  0.60793882  0.59891711  0.14058072  1
  Se  Se10  1  0.60793882  0.09891711  0.35941928  1
  Se  Se11  1  0.10793882  0.90108289  0.64058072  1
  Se  Se12  1  0.64336260  0.06686818  0.89055502  1
  Se  Se13  1  0.14336260  0.93313182  0.10944498  1
  Se  Se14  1  0.14336260  0.43313182  0.39055502  1
  Se  Se15  1  0.64336260  0.56686818  0.60944498  1
