# generated using pymatgen
data_YAg(PS3)2
_symmetry_space_group_name_H-M   'P 1'
_cell_length_a   6.37230265
_cell_length_b   6.37230265
_cell_length_c   18.42806359
_cell_angle_alpha   90.00000000
_cell_angle_beta   90.00000000
_cell_angle_gamma   120.00000000
_symmetry_Int_Tables_number   1
_chemical_formula_structural   YAg(PS3)2
_chemical_formula_sum   'Y1 Ag1 P2 S6'
_cell_volume   648.04195316
_cell_formula_units_Z   1
loop_
 _symmetry_equiv_pos_site_id
 _symmetry_equiv_pos_as_xyz
  1  'x, y, z'
loop_
 _atom_site_type_symbol
 _atom_site_label
 _atom_site_symmetry_multiplicity
 _atom_site_fract_x
 _atom_site_fract_y
 _atom_site_fract_z
 _atom_site_occupancy
  Y  Y0  1  0.00000000  0.00000000  0.50000000  1
  Ag  Ag1  1  0.66666667  0.33333333  0.50000000  1
  P  P2  1  0.33333333  0.66666667  0.56106675  1
  P  P3  1  0.33333333  0.66666667  0.43893325  1
  S  S4  1  0.64415381  0.67615343  0.59301204  1
  S  S5  1  0.03199962  0.35584619  0.59301204  1
  S  S6  1  0.32384657  0.96800038  0.59301204  1
  S  S7  1  0.32384657  0.35584619  0.40698796  1
  S  S8  1  0.03199962  0.67615343  0.40698796  1
  S  S9  1  0.64415381  0.96800038  0.40698796  1
