# generated using pymatgen
data_N2O
_symmetry_space_group_name_H-M   'P 1'
_cell_length_a   3.78755900
_cell_length_b   3.78755900
_cell_length_c   3.93001186
_cell_angle_alpha   79.68326831
_cell_angle_beta   79.68326831
_cell_angle_gamma   84.34696433
_symmetry_Int_Tables_number   1
_chemical_formula_structural   N2O
_chemical_formula_sum   'N2 O1'
_cell_volume   54.44148811
_cell_formula_units_Z   1
loop_
 _symmetry_equiv_pos_site_id
 _symmetry_equiv_pos_as_xyz
  1  'x, y, z'
loop_
 _atom_site_type_symbol
 _atom_site_label
 _atom_site_symmetry_multiplicity
 _atom_site_fract_x
 _atom_site_fract_y
 _atom_site_fract_z
 _atom_site_occupancy
  N  N0  1  0.25075674  0.25075674  0.22087651  1
  N  N1  1  0.43285181  0.43285181  0.01408531  1
  O  O2  1  0.05993145  0.05993145  0.43755819  1
