# generated using pymatgen
data_YHCl2
_symmetry_space_group_name_H-M   'P 1'
_cell_length_a   3.76210232
_cell_length_b   3.76210232
_cell_length_c   7.39101008
_cell_angle_alpha   75.26869015
_cell_angle_beta   75.26869015
_cell_angle_gamma   59.99745647
_symmetry_Int_Tables_number   1
_chemical_formula_structural   YHCl2
_chemical_formula_sum   'Y1 H1 Cl2'
_cell_volume   86.59781263
_cell_formula_units_Z   1
loop_
 _symmetry_equiv_pos_site_id
 _symmetry_equiv_pos_as_xyz
  1  'x, y, z'
loop_
 _atom_site_type_symbol
 _atom_site_label
 _atom_site_symmetry_multiplicity
 _atom_site_fract_x
 _atom_site_fract_y
 _atom_site_fract_z
 _atom_site_occupancy
  Y  Y0  1  0.46923469  0.46923469  0.82942118  1
  H  H1  1  0.13598683  0.13598683  0.82918144  1
  Cl  Cl2  1  0.88549174  0.88549174  0.58034789  1
  Cl  Cl3  1  0.71959474  0.71959474  0.07845950  1
