# generated using pymatgen
data_H4PbI3N
_symmetry_space_group_name_H-M   'P 1'
_cell_length_a   8.07614322
_cell_length_b   8.55048095
_cell_length_c   8.55065545
_cell_angle_alpha   119.95469038
_cell_angle_beta   90.06808483
_cell_angle_gamma   90.06707763
_symmetry_Int_Tables_number   1
_chemical_formula_structural   H4PbI3N
_chemical_formula_sum   'H8 Pb2 I6 N2'
_cell_volume   511.58934689
_cell_formula_units_Z   2
loop_
 _symmetry_equiv_pos_site_id
 _symmetry_equiv_pos_as_xyz
  1  'x, y, z'
loop_
 _atom_site_type_symbol
 _atom_site_label
 _atom_site_symmetry_multiplicity
 _atom_site_fract_x
 _atom_site_fract_y
 _atom_site_fract_z
 _atom_site_occupancy
  H  H0  1  0.86978403  0.99469100  0.87409307  1
  H  H1  1  0.87074786  0.76443666  0.76515287  1
  H  H2  1  0.04066095  0.87891608  0.76295453  1
  H  H3  1  0.87142853  0.87321935  0.64356849  1
  H  H4  1  0.37156089  0.32281608  0.42325390  1
  H  H5  1  0.54146546  0.21033210  0.42858062  1
  H  H6  1  0.37172267  0.09257386  0.31423575  1
  H  H7  1  0.37088121  0.21393796  0.54479196  1
  Pb  Pb8  1  0.53201981  0.54357409  0.09413340  1
  Pb  Pb9  1  0.03207946  0.54361036  0.09392388  1
  I  I10  1  0.27822066  0.60989771  0.42249583  1
  I  I11  1  0.77724101  0.47695485  0.76513616  1
  I  I12  1  0.77774215  0.28186753  0.16117197  1
  I  I13  1  0.27830850  0.80541692  0.02679516  1
  I  I14  1  0.27713119  0.21463297  0.83221803  1
  I  I15  1  0.77862908  0.87239658  0.35553155  1
  N  N16  1  0.91323889  0.87775802  0.76138306  1
  N  N17  1  0.41399714  0.20990238  0.42771129  1
