# generated using pymatgen
data_SiF4
_symmetry_space_group_name_H-M   'P 1'
_cell_length_a   4.75987128
_cell_length_b   8.25553903
_cell_length_c   17.59826138
_cell_angle_alpha   90.00000000
_cell_angle_beta   90.00000000
_cell_angle_gamma   90.00000000
_symmetry_Int_Tables_number   1
_chemical_formula_structural   SiF4
_chemical_formula_sum   'Si2 F8'
_cell_volume   691.52901554
_cell_formula_units_Z   2
loop_
 _symmetry_equiv_pos_site_id
 _symmetry_equiv_pos_as_xyz
  1  'x, y, z'
loop_
 _atom_site_type_symbol
 _atom_site_label
 _atom_site_symmetry_multiplicity
 _atom_site_fract_x
 _atom_site_fract_y
 _atom_site_fract_z
 _atom_site_occupancy
  Si  Si0  1  0.60574520  0.42186327  0.49996551  1
  Si  Si1  1  0.39425480  0.92186327  0.49996551  1
  F  F2  1  0.29655009  0.82765715  0.57350185  1
  F  F3  1  0.30346831  0.82748492  0.42585940  1
  F  F4  1  0.69653169  0.32748492  0.42585940  1
  F  F5  1  0.70344991  0.32765715  0.57350185  1
  F  F6  1  0.27469063  0.44296149  0.50135062  1
  F  F7  1  0.72530937  0.94296149  0.50135062  1
  F  F8  1  0.26170508  0.09799710  0.49932900  1
  F  F9  1  0.73829492  0.59799710  0.49932900  1
