# generated using pymatgen
data_NaH3Au
_symmetry_space_group_name_H-M   'P 1'
_cell_length_a   3.55269088
_cell_length_b   5.53369388
_cell_length_c   7.12526053
_cell_angle_alpha   81.11418816
_cell_angle_beta   75.61245999
_cell_angle_gamma   71.30311453
_symmetry_Int_Tables_number   1
_chemical_formula_structural   NaH3Au
_chemical_formula_sum   'Na2 H6 Au2'
_cell_volume   128.09740393
_cell_formula_units_Z   2
loop_
 _symmetry_equiv_pos_site_id
 _symmetry_equiv_pos_as_xyz
  1  'x, y, z'
loop_
 _atom_site_type_symbol
 _atom_site_label
 _atom_site_symmetry_multiplicity
 _atom_site_fract_x
 _atom_site_fract_y
 _atom_site_fract_z
 _atom_site_occupancy
  Na  Na0  1  0.54966021  0.86962148  0.55423887  1
  Na  Na1  1  0.37565878  0.71450360  0.05809034  1
  H  H2  1  0.00909382  0.73423369  0.77186309  1
  H  H3  1  0.68977242  0.03010416  0.11563162  1
  H  H4  1  0.31206463  0.10079952  0.79954227  1
  H  H5  1  0.79409097  0.64948772  0.28792685  1
  H  H6  1  0.06485381  0.01855278  0.37548164  1
  H  H7  1  0.73661495  0.04609756  0.00509505  1
  Au  Au8  1  0.92383313  0.33609028  0.34116819  1
  Au  Au9  1  0.16635266  0.41699502  0.77441938  1
