# generated using pymatgen
data_AsSeBr
_symmetry_space_group_name_H-M   'P 1'
_cell_length_a   3.81630637
_cell_length_b   3.81630637
_cell_length_c   13.88300778
_cell_angle_alpha   90.00000000
_cell_angle_beta   90.00000000
_cell_angle_gamma   120.00000000
_symmetry_Int_Tables_number   1
_chemical_formula_structural   AsSeBr
_chemical_formula_sum   'As2 Se2 Br2'
_cell_volume   175.10585347
_cell_formula_units_Z   2
loop_
 _symmetry_equiv_pos_site_id
 _symmetry_equiv_pos_as_xyz
  1  'x, y, z'
loop_
 _atom_site_type_symbol
 _atom_site_label
 _atom_site_symmetry_multiplicity
 _atom_site_fract_x
 _atom_site_fract_y
 _atom_site_fract_z
 _atom_site_occupancy
  As  As0  1  0.33333333  0.66666667  0.35174294  1
  As  As1  1  0.66666667  0.33333333  0.85174294  1
  Se  Se2  1  0.66666667  0.33333333  0.24835120  1
  Se  Se3  1  0.33333333  0.66666667  0.74835120  1
  Br  Br4  1  -0.00000000  -0.00000000  0.48180685  1
  Br  Br5  1  -0.00000000  -0.00000000  0.98180685  1
