# generated using pymatgen
data_HF
_symmetry_space_group_name_H-M   'P 1'
_cell_length_a   4.26362287
_cell_length_b   4.27996286
_cell_length_c   16.60188519
_cell_angle_alpha   90.00000000
_cell_angle_beta   90.00000000
_cell_angle_gamma   91.90930247
_symmetry_Int_Tables_number   1
_chemical_formula_structural   HF
_chemical_formula_sum   'H3 F3'
_cell_volume   302.78545655
_cell_formula_units_Z   3
loop_
 _symmetry_equiv_pos_site_id
 _symmetry_equiv_pos_as_xyz
  1  'x, y, z'
loop_
 _atom_site_type_symbol
 _atom_site_label
 _atom_site_symmetry_multiplicity
 _atom_site_fract_x
 _atom_site_fract_y
 _atom_site_fract_z
 _atom_site_occupancy
  H  H0  1  0.60087237  0.43496278  0.47182847  1
  H  H1  1  0.25430587  0.08604813  0.50879356  1
  H  H2  1  0.93269333  0.76640833  0.52626998  1
  F  F3  1  0.37161559  0.20314836  0.46486108  1
  F  F4  1  0.76855747  0.60506223  0.46689768  1
  F  F5  1  0.07195536  0.90437020  0.56134923  1
