# generated using pymatgen
data_KBF4
_symmetry_space_group_name_H-M   'P 1'
_cell_length_a   5.07679521
_cell_length_b   5.07844694
_cell_length_c   5.08512137
_cell_angle_alpha   95.69217387
_cell_angle_beta   115.93217150
_cell_angle_gamma   117.53670927
_symmetry_Int_Tables_number   1
_chemical_formula_structural   KBF4
_chemical_formula_sum   'K1 B1 F4'
_cell_volume   96.79511821
_cell_formula_units_Z   1
loop_
 _symmetry_equiv_pos_site_id
 _symmetry_equiv_pos_as_xyz
  1  'x, y, z'
loop_
 _atom_site_type_symbol
 _atom_site_label
 _atom_site_symmetry_multiplicity
 _atom_site_fract_x
 _atom_site_fract_y
 _atom_site_fract_z
 _atom_site_occupancy
  K  K0  1  0.19587836  0.97366638  0.35918467  1
  B  B1  1  0.19446624  0.47250894  0.85894397  1
  F  F2  1  0.19785939  0.50807887  0.58697858  1
  F  F3  1  0.50224431  0.74701890  0.13126121  1
  F  F4  1  0.88795865  0.43903691  0.82861184  1
  F  F5  1  0.18959205  0.19569001  0.88902072  1
