# generated using pymatgen
data_RbBF4
_symmetry_space_group_name_H-M   'P 1'
_cell_length_a   5.27308501
_cell_length_b   5.28753542
_cell_length_c   5.30937733
_cell_angle_alpha   60.55528578
_cell_angle_beta   66.14186436
_cell_angle_gamma   60.35502383
_symmetry_Int_Tables_number   1
_chemical_formula_structural   RbBF4
_chemical_formula_sum   'Rb1 B1 F4'
_cell_volume   109.46400242
_cell_formula_units_Z   1
loop_
 _symmetry_equiv_pos_site_id
 _symmetry_equiv_pos_as_xyz
  1  'x, y, z'
loop_
 _atom_site_type_symbol
 _atom_site_label
 _atom_site_symmetry_multiplicity
 _atom_site_fract_x
 _atom_site_fract_y
 _atom_site_fract_z
 _atom_site_occupancy
  Rb  Rb0  1  0.77676681  0.02379445  0.36012550  1
  B  B1  1  0.27814595  0.52789696  0.85886783  1
  F  F2  1  0.30854549  0.48800933  0.60118699  1
  F  F3  1  0.24667649  0.26157268  0.11313399  1
  F  F4  1  0.53618938  0.56505880  0.83658329  1
  F  F5  1  0.02167589  0.79766677  0.88410340  1
