# generated using pymatgen
data_BH6N
_symmetry_space_group_name_H-M   'P 1'
_cell_length_a   4.24627557
_cell_length_b   4.40803047
_cell_length_c   4.42080400
_cell_angle_alpha   112.14052536
_cell_angle_beta   105.15618562
_cell_angle_gamma   103.88901247
_symmetry_Int_Tables_number   1
_chemical_formula_structural   BH6N
_chemical_formula_sum   'B1 H6 N1'
_cell_volume   68.46959332
_cell_formula_units_Z   1
loop_
 _symmetry_equiv_pos_site_id
 _symmetry_equiv_pos_as_xyz
  1  'x, y, z'
loop_
 _atom_site_type_symbol
 _atom_site_label
 _atom_site_symmetry_multiplicity
 _atom_site_fract_x
 _atom_site_fract_y
 _atom_site_fract_z
 _atom_site_occupancy
  B  B0  1  0.93673682  0.83715402  0.90797583  1
  H  H1  1  0.99229865  0.60452088  0.69361562  1
  H  H2  1  0.66825132  0.88905271  0.44352777  1
  H  H3  1  0.80323115  0.71972351  0.07536532  1
  H  H4  1  0.71687314  0.21582348  0.81369740  1
  H  H5  1  0.40723374  0.82259053  0.65461258  1
  H  H6  1  0.20884878  0.09532231  0.10711180  1
  N  N7  1  0.66215574  0.94807722  0.68997902  1
