# generated using pymatgen
data_CsBF4
_symmetry_space_group_name_H-M   'P 1'
_cell_length_a   5.51528876
_cell_length_b   5.57840087
_cell_length_c   5.59342911
_cell_angle_alpha   94.46641313
_cell_angle_beta   114.62603677
_cell_angle_gamma   119.49088454
_symmetry_Int_Tables_number   1
_chemical_formula_structural   CsBF4
_chemical_formula_sum   'Cs1 B1 F4'
_cell_volume   127.16147884
_cell_formula_units_Z   1
loop_
 _symmetry_equiv_pos_site_id
 _symmetry_equiv_pos_as_xyz
  1  'x, y, z'
loop_
 _atom_site_type_symbol
 _atom_site_label
 _atom_site_symmetry_multiplicity
 _atom_site_fract_x
 _atom_site_fract_y
 _atom_site_fract_z
 _atom_site_occupancy
  Cs  Cs0  1  0.79339553  0.63265313  0.02410738  1
  B  B1  1  0.80731167  0.14241682  0.52783843  1
  F  F2  1  0.82338418  0.40126926  0.50666340  1
  F  F3  1  0.52008509  0.89471598  0.28628295  1
  F  F4  1  0.08512462  0.17096558  0.54487995  1
  F  F5  1  0.80269791  0.10397822  0.77422688  1
