# generated using pymatgen
data_SrNb2Bi2O9
_symmetry_space_group_name_H-M   'P 1'
_cell_length_a   13.01244535
_cell_length_b   13.01244535
_cell_length_c   5.68848400
_cell_angle_alpha   90.00000000
_cell_angle_beta   90.00000000
_cell_angle_gamma   154.93326168
_symmetry_Int_Tables_number   1
_chemical_formula_structural   SrNb2Bi2O9
_chemical_formula_sum   'Sr2 Nb4 Bi4 O18'
_cell_volume   408.08048555
_cell_formula_units_Z   2
loop_
 _symmetry_equiv_pos_site_id
 _symmetry_equiv_pos_as_xyz
  1  'x, y, z'
loop_
 _atom_site_type_symbol
 _atom_site_label
 _atom_site_symmetry_multiplicity
 _atom_site_fract_x
 _atom_site_fract_y
 _atom_site_fract_z
 _atom_site_occupancy
  Sr  Sr0  1  0.25159700  0.25159700  0.98342300  1
  Sr  Sr1  1  0.74840300  0.74840300  0.48342300  1
  Nb  Nb2  1  0.83397300  0.66860300  0.97532100  1
  Nb  Nb3  1  0.33139700  0.16602700  0.47532100  1
  Nb  Nb4  1  0.66860300  0.83397300  0.97532100  1
  Nb  Nb5  1  0.16602700  0.33139700  0.47532100  1
  Bi  Bi6  1  0.48647700  0.08596500  0.06559100  1
  Bi  Bi7  1  0.51352300  0.91403500  0.56559100  1
  Bi  Bi8  1  0.91403500  0.51352300  0.56559100  1
  Bi  Bi9  1  0.08596500  0.48647700  0.06559100  1
  O  O10  1  0.54113800  0.41050900  0.71603700  1
  O  O11  1  0.45886200  0.58949100  0.21603700  1
  O  O12  1  0.58949100  0.45886200  0.21603700  1
  O  O13  1  0.41050900  0.54113800  0.71603700  1
  O  O14  1  0.05731300  0.88477600  0.66906000  1
  O  O15  1  0.94268700  0.11522400  0.16906000  1
  O  O16  1  0.11522400  0.94268700  0.16906000  1
  O  O17  1  0.88477600  0.05731300  0.66906000  1
  O  O18  1  0.22773600  0.72905900  0.77440800  1
  O  O19  1  0.77226400  0.27094100  0.27440800  1
  O  O20  1  0.19354300  0.19354300  0.43403300  1
  O  O21  1  0.80645700  0.80645700  0.93403300  1
  O  O22  1  0.48617200  0.17598700  0.43785500  1
  O  O23  1  0.51382800  0.82401300  0.93785500  1
  O  O24  1  0.82401300  0.51382800  0.93785500  1
  O  O25  1  0.17598700  0.48617200  0.43785500  1
  O  O26  1  0.72905900  0.22773600  0.77440800  1
  O  O27  1  0.27094100  0.77226400  0.27440800  1
