# generated using pymatgen
data_BH6N
_symmetry_space_group_name_H-M   'P 1'
_cell_length_a   4.91687907
_cell_length_b   5.25121127
_cell_length_c   5.29127664
_cell_angle_alpha   90.00000000
_cell_angle_beta   90.00000000
_cell_angle_gamma   90.00000000
_symmetry_Int_Tables_number   1
_chemical_formula_structural   BH6N
_chemical_formula_sum   'B2 H12 N2'
_cell_volume   136.61849175
_cell_formula_units_Z   2
loop_
 _symmetry_equiv_pos_site_id
 _symmetry_equiv_pos_as_xyz
  1  'x, y, z'
loop_
 _atom_site_type_symbol
 _atom_site_label
 _atom_site_symmetry_multiplicity
 _atom_site_fract_x
 _atom_site_fract_y
 _atom_site_fract_z
 _atom_site_occupancy
  B  B0  1  0.82375813  0.00000000  0.00005430  1
  B  B1  1  0.17624187  0.50000000  0.50005430  1
  H  H2  1  0.27617585  0.69215695  0.59089865  1
  H  H3  1  0.14278553  0.65829293  0.11868181  1
  H  H4  1  0.27617585  0.30784305  0.59089865  1
  H  H5  1  0.72382415  0.19215695  0.09089865  1
  H  H6  1  0.72382415  0.80784305  0.09089865  1
  H  H7  1  0.92820449  0.50000000  0.53148560  1
  H  H8  1  0.07179551  0.00000000  0.03148560  1
  H  H9  1  0.85721447  0.84170707  0.61868181  1
  H  H10  1  0.56893549  0.00000000  0.65759228  1
  H  H11  1  0.43106451  0.50000000  0.15759228  1
  H  H12  1  0.14278553  0.34170707  0.11868181  1
  H  H13  1  0.85721447  0.15829293  0.61868181  1
  N  N14  1  0.22806402  0.50000000  0.20270789  1
  N  N15  1  0.77193598  0.00000000  0.70270789  1
