# generated using pymatgen
data_SiH3F
_symmetry_space_group_name_H-M   'P 1'
_cell_length_a   5.97359718
_cell_length_b   5.97359718
_cell_length_c   5.97359718
_cell_angle_alpha   126.18743931
_cell_angle_beta   102.91111630
_cell_angle_gamma   100.72713888
_symmetry_Int_Tables_number   1
_chemical_formula_structural   SiH3F
_chemical_formula_sum   'Si2 H6 F2'
_cell_volume   153.37417329
_cell_formula_units_Z   2
loop_
 _symmetry_equiv_pos_site_id
 _symmetry_equiv_pos_as_xyz
  1  'x, y, z'
loop_
 _atom_site_type_symbol
 _atom_site_label
 _atom_site_symmetry_multiplicity
 _atom_site_fract_x
 _atom_site_fract_y
 _atom_site_fract_z
 _atom_site_occupancy
  Si  Si0  1  0.97747866  0.04863556  0.57115690  1
  Si  Si1  1  0.47747866  0.40632176  0.42884310  1
  H  H2  1  0.64283631  0.55761707  0.74670349  1
  H  H3  1  0.31091358  0.55761707  0.41478076  1
  H  H4  1  0.14283631  0.89613282  0.58521924  1
  H  H5  1  0.61944533  0.35973567  0.24029034  1
  H  H6  1  0.81091358  0.89613282  0.25329651  1
  H  H7  1  0.11944533  0.37915499  0.75970966  1
  F  F8  1  0.29103915  0.06736153  0.27632238  1
  F  F9  1  0.79103915  0.01471678  0.72367762  1
