# generated using pymatgen
data_Si2Se3Br2
_symmetry_space_group_name_H-M   'P 1'
_cell_length_a   6.50414473
_cell_length_b   6.50414473
_cell_length_c   18.14735811
_cell_angle_alpha   90.00000000
_cell_angle_beta   90.00000000
_cell_angle_gamma   60.01842503
_symmetry_Int_Tables_number   1
_chemical_formula_structural   Si2Se3Br2
_chemical_formula_sum   'Si2 Se3 Br2'
_cell_volume   664.97456866
_cell_formula_units_Z   1
loop_
 _symmetry_equiv_pos_site_id
 _symmetry_equiv_pos_as_xyz
  1  'x, y, z'
loop_
 _atom_site_type_symbol
 _atom_site_label
 _atom_site_symmetry_multiplicity
 _atom_site_fract_x
 _atom_site_fract_y
 _atom_site_fract_z
 _atom_site_occupancy
  Si  Si0  1  0.53490494  0.79847340  0.48701615  1
  Si  Si1  1  0.20152660  0.46509505  0.48701615  1
  Se  Se2  1  0.86815985  0.48228027  0.43585271  1
  Se  Se3  1  0.51771972  0.13184015  0.43585271  1
  Se  Se4  1  0.21879801  0.78120199  0.43579755  1
  Br  Br5  1  0.20127576  0.46539348  0.60922798  1
  Br  Br6  1  0.53460652  0.79872424  0.60922798  1
