# generated using pymatgen
data_Sr3GeTe4
_symmetry_space_group_name_H-M   'P 1'
_cell_length_a   6.67024978
_cell_length_b   6.67077326
_cell_length_c   13.18388068
_cell_angle_alpha   90.00000000
_cell_angle_beta   90.00000000
_cell_angle_gamma   90.00000000
_symmetry_Int_Tables_number   1
_chemical_formula_structural   Sr3GeTe4
_chemical_formula_sum   'Sr6 Ge2 Te8'
_cell_volume   586.62631427
_cell_formula_units_Z   2
loop_
 _symmetry_equiv_pos_site_id
 _symmetry_equiv_pos_as_xyz
  1  'x, y, z'
loop_
 _atom_site_type_symbol
 _atom_site_label
 _atom_site_symmetry_multiplicity
 _atom_site_fract_x
 _atom_site_fract_y
 _atom_site_fract_z
 _atom_site_occupancy
  Sr  Sr0  1  0.24538670  0.43516221  0.00000000  1
  Sr  Sr1  1  0.24796139  0.93425079  0.75006017  1
  Sr  Sr2  1  0.75203861  0.43425079  0.74993983  1
  Sr  Sr3  1  0.75461330  0.93516221  0.50000000  1
  Sr  Sr4  1  0.75203861  0.43425079  0.25006017  1
  Sr  Sr5  1  0.24796139  0.93425079  0.24993983  1
  Ge  Ge6  1  0.78760957  0.97562059  0.00000000  1
  Ge  Ge7  1  0.21239043  0.47562059  0.50000000  1
  Te  Te8  1  0.20841673  0.93899378  0.00000000  1
  Te  Te9  1  0.74942495  0.39587034  0.00000000  1
  Te  Te10  1  0.74869245  0.93529275  0.75953134  1
  Te  Te11  1  0.25130755  0.43529275  0.74046866  1
  Te  Te12  1  0.25057505  0.89587034  0.50000000  1
  Te  Te13  1  0.79158327  0.43899378  0.50000000  1
  Te  Te14  1  0.25130755  0.43529275  0.25953134  1
  Te  Te15  1  0.74869245  0.93529275  0.24046866  1
