# generated using pymatgen
data_Ca3GeTe4
_symmetry_space_group_name_H-M   'P 1'
_cell_length_a   6.35240038
_cell_length_b   6.35518189
_cell_length_c   12.68298407
_cell_angle_alpha   90.00000000
_cell_angle_beta   90.00000000
_cell_angle_gamma   90.00000000
_symmetry_Int_Tables_number   1
_chemical_formula_structural   Ca3GeTe4
_chemical_formula_sum   'Ca6 Ge2 Te8'
_cell_volume   512.02043581
_cell_formula_units_Z   2
loop_
 _symmetry_equiv_pos_site_id
 _symmetry_equiv_pos_as_xyz
  1  'x, y, z'
loop_
 _atom_site_type_symbol
 _atom_site_label
 _atom_site_symmetry_multiplicity
 _atom_site_fract_x
 _atom_site_fract_y
 _atom_site_fract_z
 _atom_site_occupancy
  Ca  Ca0  1  0.24497146  0.43467369  0.00000000  1
  Ca  Ca1  1  0.24868127  0.93217588  0.74998308  1
  Ca  Ca2  1  0.75131873  0.43217588  0.75001692  1
  Ca  Ca3  1  0.75502854  0.93467369  0.50000000  1
  Ca  Ca4  1  0.75131873  0.43217588  0.24998308  1
  Ca  Ca5  1  0.24868127  0.93217588  0.25001692  1
  Ge  Ge6  1  0.78280948  0.96808849  0.00000000  1
  Ge  Ge7  1  0.21719052  0.46808849  0.50000000  1
  Te  Te8  1  0.22978657  0.93697672  0.00000000  1
  Te  Te9  1  0.74771339  0.41449784  0.00000000  1
  Te  Te10  1  0.74953575  0.93307275  0.75605374  1
  Te  Te11  1  0.25046425  0.43307275  0.74394626  1
  Te  Te12  1  0.25228661  0.91449784  0.50000000  1
  Te  Te13  1  0.77021343  0.43697672  0.50000000  1
  Te  Te14  1  0.25046425  0.43307275  0.25605374  1
  Te  Te15  1  0.74953575  0.93307275  0.24394626  1
