# generated using pymatgen
data_K2ReH9
_symmetry_space_group_name_H-M   'P 1'
_cell_length_a   9.50578660
_cell_length_b   9.50578660
_cell_length_c   5.53008987
_cell_angle_alpha   90.00000000
_cell_angle_beta   90.00000000
_cell_angle_gamma   120.00023258
_symmetry_Int_Tables_number   1
_chemical_formula_structural   K2ReH9
_chemical_formula_sum   'K6 Re3 H27'
_cell_volume   432.75084397
_cell_formula_units_Z   3
loop_
 _symmetry_equiv_pos_site_id
 _symmetry_equiv_pos_as_xyz
  1  'x, y, z'
loop_
 _atom_site_type_symbol
 _atom_site_label
 _atom_site_symmetry_multiplicity
 _atom_site_fract_x
 _atom_site_fract_y
 _atom_site_fract_z
 _atom_site_occupancy
  K  K0  1  0.73770273  0.73770273  0.00000000  1
  K  K1  1  0.00002341  0.26230029  1.00000000  1
  K  K2  1  0.26230029  0.00002341  0.00000000  1
  K  K3  1  0.40848018  0.40848018  0.50000000  1
  K  K4  1  0.00002657  0.59141122  0.50000000  1
  K  K5  1  0.59141122  0.00002657  0.50000000  1
  Re  Re6  1  0.33332618  0.66664274  0.00000000  1
  Re  Re7  1  0.66664274  0.33332618  0.00000000  1
  Re  Re8  1  0.00000652  0.00000652  0.50000000  1
  H  H9  1  0.46868709  0.69213999  0.22131240  1
  H  H10  1  0.22345150  0.53128358  0.22131427  1
  H  H11  1  0.30783606  0.77652403  0.22132315  1
  H  H12  1  0.69213999  0.46868709  0.77868760  1
  H  H13  1  0.30783606  0.77652403  0.77867685  1
  H  H14  1  0.46868709  0.69213999  0.77868760  1
  H  H15  1  0.22345150  0.53128358  0.77868573  1
  H  H16  1  0.53128358  0.22345150  0.22131427  1
  H  H17  1  0.77652403  0.30783606  0.22132315  1
  H  H18  1  0.17632291  0.99999379  0.50000000  1
  H  H19  1  0.99999379  0.17632291  0.50000000  1
  H  H20  1  0.82368361  0.82368361  0.50000000  1
  H  H21  1  0.87271371  0.99999601  0.71518288  1
  H  H22  1  0.99999601  0.87271371  0.28481712  1
  H  H23  1  0.12730088  0.12730088  0.28481081  1
  H  H24  1  0.12730088  0.12730088  0.71518919  1
  H  H25  1  0.99999601  0.87271371  0.71518288  1
  H  H26  1  0.87271371  0.99999601  0.28481712  1
  H  H27  1  0.51092172  0.36855673  0.00000000  1
  H  H28  1  0.63144583  0.14236102  0.00000000  1
  H  H29  1  0.85764119  0.48907268  0.00000000  1
  H  H30  1  0.14236102  0.63144583  0.00000000  1
  H  H31  1  0.36855673  0.51092172  0.00000000  1
  H  H32  1  0.48907268  0.85764119  0.00000000  1
  H  H33  1  0.69213999  0.46868709  0.22131240  1
  H  H34  1  0.53128358  0.22345150  0.77868573  1
  H  H35  1  0.77652403  0.30783606  0.77867685  1
