# generated using pymatgen
data_NbAlO4
_symmetry_space_group_name_H-M   'P 1'
_cell_length_a   5.91611465
_cell_length_b   5.91611465
_cell_length_c   5.91611465
_cell_angle_alpha   120.26439320
_cell_angle_beta   120.26439320
_cell_angle_gamma   89.54266434
_symmetry_Int_Tables_number   1
_chemical_formula_structural   NbAlO4
_chemical_formula_sum   'Nb1 Al1 O4'
_cell_volume   145.82792732
_cell_formula_units_Z   1
loop_
 _symmetry_equiv_pos_site_id
 _symmetry_equiv_pos_as_xyz
  1  'x, y, z'
loop_
 _atom_site_type_symbol
 _atom_site_label
 _atom_site_symmetry_multiplicity
 _atom_site_fract_x
 _atom_site_fract_y
 _atom_site_fract_z
 _atom_site_occupancy
  Nb  Nb0  1  0.50000000  0.50000000  -0.00000000  1
  Al  Al1  1  0.75000000  0.25000000  0.50000000  1
  O  O2  1  0.62014711  0.37118473  0.73454447  1
  O  O3  1  0.63664026  0.88560264  0.26545553  1
  O  O4  1  0.11439736  0.37985289  0.75103762  1
  O  O5  1  0.62881527  0.36335974  0.24896238  1
