# generated using pymatgen
data_CsHg17I
_symmetry_space_group_name_H-M   'P 1'
_cell_length_a   8.62729161
_cell_length_b   8.62729161
_cell_length_c   8.62729161
_cell_angle_alpha   81.26122706
_cell_angle_beta   81.26122706
_cell_angle_gamma   81.26122706
_symmetry_Int_Tables_number   1
_chemical_formula_structural   CsHg17I
_chemical_formula_sum   'Cs1 Hg17 I1'
_cell_volume   621.82856097
_cell_formula_units_Z   1
loop_
 _symmetry_equiv_pos_site_id
 _symmetry_equiv_pos_as_xyz
  1  'x, y, z'
loop_
 _atom_site_type_symbol
 _atom_site_label
 _atom_site_symmetry_multiplicity
 _atom_site_fract_x
 _atom_site_fract_y
 _atom_site_fract_z
 _atom_site_occupancy
  Cs  Cs0  1  0.64969429  0.64969429  0.64969429  1
  Hg  Hg1  1  0.29666967  0.68636941  0.01013087  1
  Hg  Hg2  1  0.01013087  0.29666967  0.68636941  1
  Hg  Hg3  1  0.68636941  0.01013087  0.29666967  1
  Hg  Hg4  1  0.01013087  0.68636941  0.29666967  1
  Hg  Hg5  1  0.29666967  0.01013087  0.68636941  1
  Hg  Hg6  1  0.68636941  0.29666967  0.01013087  1
  Hg  Hg7  1  0.62025619  0.62025619  0.18653196  1
  Hg  Hg8  1  0.18653196  0.62025619  0.62025619  1
  Hg  Hg9  1  0.62025619  0.18653196  0.62025619  1
  Hg  Hg10  1  0.34157160  0.34157160  0.88422239  1
  Hg  Hg11  1  0.88422239  0.34157160  0.34157160  1
  Hg  Hg12  1  0.34157160  0.88422239  0.34157160  1
  Hg  Hg13  1  0.97038757  0.97038757  0.53317343  1
  Hg  Hg14  1  0.53317343  0.97038757  0.97038757  1
  Hg  Hg15  1  0.97038757  0.53317343  0.97038757  1
  Hg  Hg16  1  0.12092852  0.12092852  0.12092852  1
  Hg  Hg17  1  0.93096163  0.93096163  0.93096163  1
  I  I18  1  0.34371615  0.34371615  0.34371615  1
