# generated using pymatgen
data_CsClO3
_symmetry_space_group_name_H-M   'P 1'
_cell_length_a   4.70425536
_cell_length_b   6.53643126
_cell_length_c   6.87205036
_cell_angle_alpha   90.00000000
_cell_angle_beta   90.00000000
_cell_angle_gamma   90.00000000
_symmetry_Int_Tables_number   1
_chemical_formula_structural   CsClO3
_chemical_formula_sum   'Cs2 Cl2 O6'
_cell_volume   211.30896370
_cell_formula_units_Z   2
loop_
 _symmetry_equiv_pos_site_id
 _symmetry_equiv_pos_as_xyz
  1  'x, y, z'
loop_
 _atom_site_type_symbol
 _atom_site_label
 _atom_site_symmetry_multiplicity
 _atom_site_fract_x
 _atom_site_fract_y
 _atom_site_fract_z
 _atom_site_occupancy
  Cs  Cs0  1  0.99920657  0.00000000  0.49766980  1
  Cs  Cs1  1  0.00079343  0.50000000  0.99766980  1
  Cl  Cl2  1  0.45299137  0.00000000  0.03086782  1
  Cl  Cl3  1  0.54700863  0.50000000  0.53086782  1
  O  O4  1  0.49610223  0.81438983  0.15804626  1
  O  O5  1  0.49610223  0.18561017  0.15804626  1
  O  O6  1  0.85450549  0.50000000  0.46837286  1
  O  O7  1  0.50389777  0.68561017  0.65804626  1
  O  O8  1  0.50389777  0.31438983  0.65804626  1
  O  O9  1  0.14549451  0.00000000  0.96837286  1
