# generated using pymatgen
data_PtPbCl4
_symmetry_space_group_name_H-M   'P 1'
_cell_length_a   6.12148566
_cell_length_b   6.12148566
_cell_length_c   6.12148566
_cell_angle_alpha   111.29879504
_cell_angle_beta   111.29879504
_cell_angle_gamma   105.87483162
_symmetry_Int_Tables_number   1
_chemical_formula_structural   PtPbCl4
_chemical_formula_sum   'Pt1 Pb1 Cl4'
_cell_volume   176.06531827
_cell_formula_units_Z   1
loop_
 _symmetry_equiv_pos_site_id
 _symmetry_equiv_pos_as_xyz
  1  'x, y, z'
loop_
 _atom_site_type_symbol
 _atom_site_label
 _atom_site_symmetry_multiplicity
 _atom_site_fract_x
 _atom_site_fract_y
 _atom_site_fract_z
 _atom_site_occupancy
  Pt  Pt0  1  0.75000000  0.25000000  0.50000000  1
  Pb  Pb1  1  0.50000000  0.50000000  0.00000000  1
  Cl  Cl2  1  0.98743130  0.01424757  0.50268602  1
  Cl  Cl3  1  0.51156155  0.48474528  0.49731398  1
  Cl  Cl4  1  0.98575243  0.48843845  0.97318373  1
  Cl  Cl5  1  0.51525472  0.01256870  0.02681627  1
