# generated using pymatgen
data_CuH2I
_symmetry_space_group_name_H-M   'P 1'
_cell_length_a   4.26054299
_cell_length_b   4.26483105
_cell_length_c   5.40114772
_cell_angle_alpha   91.02850100
_cell_angle_beta   91.37658498
_cell_angle_gamma   119.91199942
_symmetry_Int_Tables_number   1
_chemical_formula_structural   CuH2I
_chemical_formula_sum   'Cu1 H2 I1'
_cell_volume   84.99303526
_cell_formula_units_Z   1
loop_
 _symmetry_equiv_pos_site_id
 _symmetry_equiv_pos_as_xyz
  1  'x, y, z'
loop_
 _atom_site_type_symbol
 _atom_site_label
 _atom_site_symmetry_multiplicity
 _atom_site_fract_x
 _atom_site_fract_y
 _atom_site_fract_z
 _atom_site_occupancy
  Cu  Cu0  1  0.39803450  0.86190163  0.75810627  1
  H  H1  1  0.34671739  0.74973427  0.43539095  1
  H  H2  1  0.41902724  0.96147000  0.43995105  1
  I  I3  1  0.07702185  0.20908509  0.91655173  1
