# generated using pymatgen
data_CsRbF2
_symmetry_space_group_name_H-M   'P 1'
_cell_length_a   7.52572821
_cell_length_b   7.52572821
_cell_length_c   7.52572821
_cell_angle_alpha   31.47509771
_cell_angle_beta   31.47509771
_cell_angle_gamma   31.47509771
_symmetry_Int_Tables_number   1
_chemical_formula_structural   CsRbF2
_chemical_formula_sum   'Cs1 Rb1 F2'
_cell_volume   103.15677087
_cell_formula_units_Z   1
loop_
 _symmetry_equiv_pos_site_id
 _symmetry_equiv_pos_as_xyz
  1  'x, y, z'
loop_
 _atom_site_type_symbol
 _atom_site_label
 _atom_site_symmetry_multiplicity
 _atom_site_fract_x
 _atom_site_fract_y
 _atom_site_fract_z
 _atom_site_occupancy
  Cs  Cs0  1  0.50134824  0.50134824  0.50134824  1
  Rb  Rb1  1  0.33193226  0.33193226  0.33193226  1
  F  F2  1  0.92145119  0.92145119  0.92145119  1
  F  F3  1  0.74526798  0.74526798  0.74526798  1
