# generated using pymatgen
data_NbF5
_symmetry_space_group_name_H-M   'P 1'
_cell_length_a   5.36021238
_cell_length_b   5.47830275
_cell_length_c   7.63216901
_cell_angle_alpha   98.97702700
_cell_angle_beta   103.31478084
_cell_angle_gamma   117.65720005
_symmetry_Int_Tables_number   1
_chemical_formula_structural   NbF5
_chemical_formula_sum   'Nb2 F10'
_cell_volume   183.96611730
_cell_formula_units_Z   2
loop_
 _symmetry_equiv_pos_site_id
 _symmetry_equiv_pos_as_xyz
  1  'x, y, z'
loop_
 _atom_site_type_symbol
 _atom_site_label
 _atom_site_symmetry_multiplicity
 _atom_site_fract_x
 _atom_site_fract_y
 _atom_site_fract_z
 _atom_site_occupancy
  Nb  Nb0  1  0.97465051  0.93682309  0.08684475  1
  Nb  Nb1  1  0.02116499  0.55899053  0.51132957  1
  F  F2  1  0.94741090  0.21529982  0.29512636  1
  F  F3  1  0.07884902  0.87110801  0.69096625  1
  F  F4  1  0.90700474  0.74177190  0.29763257  1
  F  F5  1  0.28668003  0.85549565  0.10914666  1
  F  F6  1  0.26315549  0.28501212  0.06435807  1
  F  F7  1  0.39545638  0.75248941  0.47801059  1
  F  F8  1  0.74028381  0.55896381  0.91377348  1
  F  F9  1  0.59651809  0.33967632  0.43939853  1
  F  F10  1  0.69537293  0.98652932  0.91641271  1
  F  F11  1  0.11108111  0.38192903  0.68287646  1
