# generated using pymatgen
data_Hg2P2Se7
_symmetry_space_group_name_H-M   'P 1'
_cell_length_a   6.58284378
_cell_length_b   6.58284378
_cell_length_c   8.86200735
_cell_angle_alpha   77.87822444
_cell_angle_beta   77.87822444
_cell_angle_gamma   56.91793989
_symmetry_Int_Tables_number   1
_chemical_formula_structural   Hg2P2Se7
_chemical_formula_sum   'Hg2 P2 Se7'
_cell_volume   312.45691042
_cell_formula_units_Z   1
loop_
 _symmetry_equiv_pos_site_id
 _symmetry_equiv_pos_as_xyz
  1  'x, y, z'
loop_
 _atom_site_type_symbol
 _atom_site_label
 _atom_site_symmetry_multiplicity
 _atom_site_fract_x
 _atom_site_fract_y
 _atom_site_fract_z
 _atom_site_occupancy
  Hg  Hg0  1  0.21376241  0.20879528  0.81356404  1
  Hg  Hg1  1  0.79120472  0.78623759  0.18643596  1
  P  P2  1  0.08825372  0.08341962  0.29209293  1
  P  P3  1  0.91658038  0.91174628  0.70790707  1
  Se  Se4  1  0.79444688  0.27516551  0.76051157  1
  Se  Se5  1  0.72483449  0.20555312  0.23948843  1
  Se  Se6  1  0.10894173  0.38297003  0.35029171  1
  Se  Se7  1  0.61702997  0.89105827  0.64970829  1
  Se  Se8  1  0.22414091  0.77585909  0.50000000  1
  Se  Se9  1  0.37642675  0.86802197  0.10615252  1
  Se  Se10  1  0.13197803  0.62357325  0.89384748  1
