# generated using pymatgen
data_Nb4Ag2O11
_symmetry_space_group_name_H-M   'P 1'
_cell_length_a   13.24308645
_cell_length_b   13.24308645
_cell_length_c   13.24308645
_cell_angle_alpha   27.34979827
_cell_angle_beta   27.34979827
_cell_angle_gamma   27.34979827
_symmetry_Int_Tables_number   1
_chemical_formula_structural   Nb4Ag2O11
_chemical_formula_sum   'Nb8 Ag4 O22'
_cell_volume   432.59586536
_cell_formula_units_Z   2
loop_
 _symmetry_equiv_pos_site_id
 _symmetry_equiv_pos_as_xyz
  1  'x, y, z'
loop_
 _atom_site_type_symbol
 _atom_site_label
 _atom_site_symmetry_multiplicity
 _atom_site_fract_x
 _atom_site_fract_y
 _atom_site_fract_z
 _atom_site_occupancy
  Nb  Nb0  1  0.99606300  0.99606300  0.99606300  1
  Nb  Nb1  1  0.49606300  0.49606300  0.49606300  1
  Nb  Nb2  1  0.75260900  0.37801600  0.11492800  1
  Nb  Nb3  1  0.11492800  0.75260900  0.37801600  1
  Nb  Nb4  1  0.37801600  0.11492800  0.75260900  1
  Nb  Nb5  1  0.25260900  0.61492800  0.87801600  1
  Nb  Nb6  1  0.61492800  0.87801600  0.25260900  1
  Nb  Nb7  1  0.87801600  0.25260900  0.61492800  1
  Ag  Ag8  1  0.67138300  0.67138300  0.67138300  1
  Ag  Ag9  1  0.17138300  0.17138300  0.17138300  1
  Ag  Ag10  1  0.82609100  0.82609100  0.82609100  1
  Ag  Ag11  1  0.32609100  0.32609100  0.32609100  1
  O  O12  1  0.76404300  0.28301200  0.05260400  1
  O  O13  1  0.05260400  0.76404300  0.28301200  1
  O  O14  1  0.28301200  0.05260400  0.76404300  1
  O  O15  1  0.26404300  0.55260400  0.78301200  1
  O  O16  1  0.55260400  0.78301200  0.26404300  1
  O  O17  1  0.78301200  0.26404300  0.55260400  1
  O  O18  1  0.90702000  0.90702000  0.90702000  1
  O  O19  1  0.40702000  0.40702000  0.40702000  1
  O  O20  1  0.59683900  0.59683900  0.59683900  1
  O  O21  1  0.09683900  0.09683900  0.09683900  1
  O  O22  1  0.74882400  0.00847500  0.49741700  1
  O  O23  1  0.49741700  0.74882400  0.00847500  1
  O  O24  1  0.00847500  0.49741700  0.74882400  1
  O  O25  1  0.24882400  0.99741700  0.50847500  1
  O  O26  1  0.99741700  0.50847500  0.24882400  1
  O  O27  1  0.50847500  0.24882400  0.99741700  1
  O  O28  1  0.21506000  0.74489600  0.45342100  1
  O  O29  1  0.45342100  0.21506000  0.74489600  1
  O  O30  1  0.74489600  0.45342100  0.21506000  1
  O  O31  1  0.71506000  0.95342100  0.24489600  1
  O  O32  1  0.95342100  0.24489600  0.71506000  1
  O  O33  1  0.24489600  0.71506000  0.95342100  1
