# generated using pymatgen
data_Br
_symmetry_space_group_name_H-M   'P 1'
_cell_length_a   4.90204415
_cell_length_b   5.00383309
_cell_length_c   11.72308499
_cell_angle_alpha   99.14802381
_cell_angle_beta   97.41352354
_cell_angle_gamma   100.58300600
_symmetry_Int_Tables_number   1
_chemical_formula_structural   Br
_chemical_formula_sum   Br6
_cell_volume   275.33495149
_cell_formula_units_Z   6
loop_
 _symmetry_equiv_pos_site_id
 _symmetry_equiv_pos_as_xyz
  1  'x, y, z'
loop_
 _atom_site_type_symbol
 _atom_site_label
 _atom_site_symmetry_multiplicity
 _atom_site_fract_x
 _atom_site_fract_y
 _atom_site_fract_z
 _atom_site_occupancy
  Br  Br0  1  0.68877261  0.68935439  0.62628345  1
  Br  Br1  1  0.93149016  0.93560297  0.47963565  1
  Br  Br2  1  0.59591504  0.36755856  0.98748906  1
  Br  Br3  1  0.65501165  0.03685847  0.80605232  1
  Br  Br4  1  0.20790044  0.14733842  0.33341233  1
  Br  Br5  1  0.88756011  0.24452718  0.16180052  1
