# generated using pymatgen
data_SiHgAsH
_symmetry_space_group_name_H-M   'P 1'
_cell_length_a   3.67132251
_cell_length_b   3.67132251
_cell_length_c   8.95961147
_cell_angle_alpha   78.71601370
_cell_angle_beta   78.71601370
_cell_angle_gamma   60.00899885
_symmetry_Int_Tables_number   1
_chemical_formula_structural   SiHgAsH
_chemical_formula_sum   'Si1 Hg1 As1 H1'
_cell_volume   101.88842406
_cell_formula_units_Z   1
loop_
 _symmetry_equiv_pos_site_id
 _symmetry_equiv_pos_as_xyz
  1  'x, y, z'
loop_
 _atom_site_type_symbol
 _atom_site_label
 _atom_site_symmetry_multiplicity
 _atom_site_fract_x
 _atom_site_fract_y
 _atom_site_fract_z
 _atom_site_occupancy
  Si  Si0  1  0.39420442  0.39420442  0.48087250  1
  Hg  Hg1  1  0.56798808  0.56798808  0.98344559  1
  As  As2  1  0.02127447  0.02127446  0.60512224  1
  H  H3  1  0.44944305  0.44944305  0.30825967  1
