# generated using pymatgen
data_CdBr2
_symmetry_space_group_name_H-M   'P 1'
_cell_length_a   3.98500000
_cell_length_b   3.98500000
_cell_length_c   12.56100000
_cell_angle_alpha   90.00000000
_cell_angle_beta   90.00000000
_cell_angle_gamma   120.00000000
_symmetry_Int_Tables_number   1
_chemical_formula_structural   CdBr2
_chemical_formula_sum   'Cd2 Br4'
_cell_volume   172.74739172
_cell_formula_units_Z   2
loop_
 _symmetry_equiv_pos_site_id
 _symmetry_equiv_pos_as_xyz
  1  'x, y, z'
loop_
 _atom_site_type_symbol
 _atom_site_label
 _atom_site_symmetry_multiplicity
 _atom_site_fract_x
 _atom_site_fract_y
 _atom_site_fract_z
 _atom_site_occupancy
  Cd  Cd0  1  0.66666667  0.33333333  0.87500000  1.0
  Cd  Cd1  1  0.33333333  0.66666667  0.37500000  1.0
  Br  Br2  1  0.00000000  0.00000000  0.75000000  1.0
  Br  Br3  1  0.00000000  0.00000000  0.25000000  1.0
  Br  Br4  1  0.33333333  0.66666667  0.00000000  1.0
  Br  Br5  1  0.66666667  0.33333333  0.50000000  1.0
