# generated using pymatgen
data_PSI
_symmetry_space_group_name_H-M   'P 1'
_cell_length_a   4.79154148
_cell_length_b   9.24536873
_cell_length_c   9.77726357
_cell_angle_alpha   90.00000000
_cell_angle_beta   90.00000000
_cell_angle_gamma   90.00000000
_symmetry_Int_Tables_number   1
_chemical_formula_structural   PSI
_chemical_formula_sum   'P4 S4 I4'
_cell_volume   433.12855024
_cell_formula_units_Z   4
loop_
 _symmetry_equiv_pos_site_id
 _symmetry_equiv_pos_as_xyz
  1  'x, y, z'
loop_
 _atom_site_type_symbol
 _atom_site_label
 _atom_site_symmetry_multiplicity
 _atom_site_fract_x
 _atom_site_fract_y
 _atom_site_fract_z
 _atom_site_occupancy
  P  P0  1  0.54428558  0.84538160  0.41264247  1
  P  P1  1  0.45571442  0.34538160  0.08735754  1
  P  P2  1  0.04428558  0.65461840  0.58735753  1
  P  P3  1  0.95571442  0.15461840  0.91264247  1
  S  S4  1  0.71220975  0.80558777  0.61284739  1
  S  S5  1  0.28779025  0.30558777  0.88715261  1
  S  S6  1  0.21220975  0.69441223  0.38715261  1
  S  S7  1  0.78779025  0.19441223  0.11284738  1
  I  I8  1  0.81853783  0.41854094  0.52535365  1
  I  I9  1  0.18146217  0.91854094  0.97464635  1
  I  I10  1  0.31853783  0.08145906  0.47464636  1
  I  I11  1  0.68146217  0.58145906  0.02535365  1
