# generated using pymatgen
data_ZnHBr
_symmetry_space_group_name_H-M   'P 1'
_cell_length_a   5.83698648
_cell_length_b   5.83698648
_cell_length_c   5.09514919
_cell_angle_alpha   68.74727361
_cell_angle_beta   68.74727361
_cell_angle_gamma   96.14353213
_symmetry_Int_Tables_number   1
_chemical_formula_structural   ZnHBr
_chemical_formula_sum   'Zn2 H2 Br2'
_cell_volume   144.99361732
_cell_formula_units_Z   2
loop_
 _symmetry_equiv_pos_site_id
 _symmetry_equiv_pos_as_xyz
  1  'x, y, z'
loop_
 _atom_site_type_symbol
 _atom_site_label
 _atom_site_symmetry_multiplicity
 _atom_site_fract_x
 _atom_site_fract_y
 _atom_site_fract_z
 _atom_site_occupancy
  Zn  Zn0  1  0.51018000  0.70252000  0.17083000  1
  Zn  Zn1  1  0.70252000  0.51018000  0.67083000  1
  H  H2  1  0.48921000  0.59781000  0.91482000  1
  H  H3  1  0.59781000  0.48921000  0.41482000  1
  Br  Br4  1  0.12851000  0.81883000  0.42609000  1
  Br  Br5  1  0.81883000  0.12851000  0.92609000  1
