# generated using pymatgen
data_Al(BH4)3
_symmetry_space_group_name_H-M   'P 1'
_cell_length_a   8.21941623
_cell_length_b   8.21941623
_cell_length_c   8.21941623
_cell_angle_alpha   52.90848735
_cell_angle_beta   52.90848735
_cell_angle_gamma   52.90848735
_symmetry_Int_Tables_number   1
_chemical_formula_structural   Al(BH4)3
_chemical_formula_sum   'Al2 B6 H24'
_cell_volume   327.36751579
_cell_formula_units_Z   2
loop_
 _symmetry_equiv_pos_site_id
 _symmetry_equiv_pos_as_xyz
  1  'x, y, z'
loop_
 _atom_site_type_symbol
 _atom_site_label
 _atom_site_symmetry_multiplicity
 _atom_site_fract_x
 _atom_site_fract_y
 _atom_site_fract_z
 _atom_site_occupancy
  Al  Al0  1  0.99515389  0.99515389  0.99515389  1
  Al  Al1  1  0.49515389  0.49515389  0.49515389  1
  B  B2  1  0.28374333  0.00377831  0.70176382  1
  B  B3  1  0.78374333  0.20176382  0.50377831  1
  B  B4  1  0.20176382  0.50377831  0.78374333  1
  B  B5  1  0.70176382  0.28374333  0.00377831  1
  B  B6  1  0.00377831  0.70176382  0.28374333  1
  B  B7  1  0.50377831  0.78374333  0.20176382  1
  H  H8  1  0.87726651  0.26690231  0.98232116  1
  H  H9  1  0.76672149  0.07388919  0.68985349  1
  H  H10  1  0.15531395  0.35308530  0.94835427  1
  H  H11  1  0.12932683  0.97392664  0.73608255  1
  H  H12  1  0.62932683  0.23608255  0.47392664  1
  H  H13  1  0.65531395  0.44835427  0.85308530  1
  H  H14  1  0.26672149  0.18985349  0.57388919  1
  H  H15  1  0.94835427  0.15531395  0.35308530  1
  H  H16  1  0.37726651  0.48232116  0.76690231  1
  H  H17  1  0.07388919  0.68985349  0.76672149  1
  H  H18  1  0.23608255  0.47392664  0.62932683  1
  H  H19  1  0.76690231  0.37726651  0.48232116  1
  H  H20  1  0.85308530  0.65531395  0.44835427  1
  H  H21  1  0.26690231  0.98232116  0.87726651  1
  H  H22  1  0.73608255  0.12932683  0.97392664  1
  H  H23  1  0.57388919  0.26672149  0.18985349  1
  H  H24  1  0.18985349  0.57388919  0.26672149  1
  H  H25  1  0.44835427  0.85308530  0.65531395  1
  H  H26  1  0.48232116  0.76690231  0.37726651  1
  H  H27  1  0.97392664  0.73608255  0.12932683  1
  H  H28  1  0.47392664  0.62932683  0.23608255  1
  H  H29  1  0.98232116  0.87726651  0.26690231  1
  H  H30  1  0.68985349  0.76672149  0.07388919  1
  H  H31  1  0.35308530  0.94835427  0.15531395  1
