# generated using pymatgen
data_H4NF
_symmetry_space_group_name_H-M   'P 1'
_cell_length_a   7.23541417
_cell_length_b   7.23541417
_cell_length_c   7.23541417
_cell_angle_alpha   71.25007812
_cell_angle_beta   71.25007812
_cell_angle_gamma   71.25007812
_symmetry_Int_Tables_number   1
_chemical_formula_structural   H4NF
_chemical_formula_sum   'H32 N8 F8'
_cell_volume   329.44434026
_cell_formula_units_Z   8
loop_
 _symmetry_equiv_pos_site_id
 _symmetry_equiv_pos_as_xyz
  1  'x, y, z'
loop_
 _atom_site_type_symbol
 _atom_site_label
 _atom_site_symmetry_multiplicity
 _atom_site_fract_x
 _atom_site_fract_y
 _atom_site_fract_z
 _atom_site_occupancy
  H  H0  1  0.80607667  0.80607667  0.80607667  1
  H  H1  1  0.30607667  0.30607667  0.30607667  1
  H  H2  1  0.62494018  0.68210530  0.84585001  1
  H  H3  1  0.68210530  0.84585001  0.62494018  1
  H  H4  1  0.84585001  0.62494018  0.68210530  1
  H  H5  1  0.18210530  0.12494018  0.34585001  1
  H  H6  1  0.12494018  0.34585001  0.18210530  1
  H  H7  1  0.34585001  0.18210530  0.12494018  1
  H  H8  1  0.65819373  0.14749097  0.24072713  1
  H  H9  1  0.14749097  0.24072713  0.65819373  1
  H  H10  1  0.24072713  0.65819373  0.14749097  1
  H  H11  1  0.64749097  0.15819373  0.74072713  1
  H  H12  1  0.15819373  0.74072713  0.64749097  1
  H  H13  1  0.74072713  0.64749097  0.15819373  1
  H  H14  1  0.60470465  0.33979992  0.04251879  1
  H  H15  1  0.33979992  0.04251879  0.60470465  1
  H  H16  1  0.04251879  0.60470465  0.33979992  1
  H  H17  1  0.83979992  0.10470465  0.54251879  1
  H  H18  1  0.10470465  0.54251879  0.83979992  1
  H  H19  1  0.54251879  0.83979992  0.10470465  1
  H  H20  1  0.78739307  0.12102033  0.01029344  1
  H  H21  1  0.12102033  0.01029344  0.78739307  1
  H  H22  1  0.01029344  0.78739307  0.12102033  1
  H  H23  1  0.62102033  0.28739307  0.51029344  1
  H  H24  1  0.28739307  0.51029344  0.62102033  1
  H  H25  1  0.51029344  0.62102033  0.28739307  1
  H  H26  1  0.82074608  0.29994626  0.09793548  1
  H  H27  1  0.29994626  0.09793548  0.82074608  1
  H  H28  1  0.09793548  0.82074608  0.29994626  1
  H  H29  1  0.79994626  0.32074608  0.59793548  1
  H  H30  1  0.32074608  0.59793548  0.79994626  1
  H  H31  1  0.59793548  0.79994626  0.32074608  1
  N  N32  1  0.74179245  0.74179245  0.74179245  1
  N  N33  1  0.24179245  0.24179245  0.24179245  1
  N  N34  1  0.71861046  0.22601291  0.09743600  1
  N  N35  1  0.22601291  0.09743600  0.71861046  1
  N  N36  1  0.09743600  0.71861046  0.22601291  1
  N  N37  1  0.72601291  0.21861046  0.59743600  1
  N  N38  1  0.21861046  0.59743600  0.72601291  1
  N  N39  1  0.59743600  0.72601291  0.21861046  1
  F  F40  1  0.91830827  0.91830827  0.91830827  1
  F  F41  1  0.41830827  0.41830827  0.41830827  1
  F  F42  1  0.44370781  0.56735567  0.96813444  1
  F  F43  1  0.56735567  0.96813444  0.44370781  1
  F  F44  1  0.96813444  0.44370781  0.56735567  1
  F  F45  1  0.06735567  0.94370781  0.46813444  1
  F  F46  1  0.94370781  0.46813444  0.06735567  1
  F  F47  1  0.46813444  0.06735567  0.94370781  1
