# generated using pymatgen
data_KNa2YF6
_symmetry_space_group_name_H-M   'P 1'
_cell_length_a   6.01703175
_cell_length_b   6.01782274
_cell_length_c   6.38353663
_cell_angle_alpha   61.88230963
_cell_angle_beta   61.88599735
_cell_angle_gamma   60.00916510
_symmetry_Int_Tables_number   1
_chemical_formula_structural   KNa2YF6
_chemical_formula_sum   'K1 Na2 Y1 F6'
_cell_volume   167.95692705
_cell_formula_units_Z   1
loop_
 _symmetry_equiv_pos_site_id
 _symmetry_equiv_pos_as_xyz
  1  'x, y, z'
loop_
 _atom_site_type_symbol
 _atom_site_label
 _atom_site_symmetry_multiplicity
 _atom_site_fract_x
 _atom_site_fract_y
 _atom_site_fract_z
 _atom_site_occupancy
  K  K0  1  0.80347485  0.80354403  0.58952751  1
  Na  Na1  1  0.52433697  0.52437506  0.42692139  1
  Na  Na2  1  0.01578663  0.01570859  0.95269393  1
  Y  Y3  1  0.31755882  0.31757646  0.04728469  1
  F  F4  1  0.24369496  0.93656024  0.22998158  1
  F  F5  1  0.93661134  0.58964014  0.23004592  1
  F  F6  1  0.58982580  0.24353254  0.23003134  1
  F  F7  1  0.70235523  0.16323388  0.76954625  1
  F  F8  1  0.16308584  0.36498183  0.76958447  1
  F  F9  1  0.36487056  0.70244822  0.76958393  1
