# generated using pymatgen
data_KLiSiF6
_symmetry_space_group_name_H-M   'P 1'
_cell_length_a   5.11857757
_cell_length_b   5.11857757
_cell_length_c   5.63062568
_cell_angle_alpha   90.00000000
_cell_angle_beta   90.00000000
_cell_angle_gamma   120.00000000
_symmetry_Int_Tables_number   1
_chemical_formula_structural   KLiSiF6
_chemical_formula_sum   'K1 Li1 Si1 F6'
_cell_volume   127.75734176
_cell_formula_units_Z   1
loop_
 _symmetry_equiv_pos_site_id
 _symmetry_equiv_pos_as_xyz
  1  'x, y, z'
loop_
 _atom_site_type_symbol
 _atom_site_label
 _atom_site_symmetry_multiplicity
 _atom_site_fract_x
 _atom_site_fract_y
 _atom_site_fract_z
 _atom_site_occupancy
  K  K0  1  0.33333333  0.66666667  0.00000000  1
  Li  Li1  1  0.66666667  0.33333333  0.50000000  1
  Si  Si2  1  -0.00000000  0.00000000  0.50000000  1
  F  F3  1  0.73401379  0.71626542  0.67543252  1
  F  F4  1  0.28373458  0.01774838  0.67543252  1
  F  F5  1  0.98225162  0.26598621  0.67543252  1
  F  F6  1  0.28373458  0.26598621  0.32456748  1
  F  F7  1  0.73401379  0.01774838  0.32456748  1
  F  F8  1  0.98225162  0.71626542  0.32456748  1
