# generated using pymatgen
data_Li2GeTe4Pb
_symmetry_space_group_name_H-M   'P 1'
_cell_length_a   6.93828140
_cell_length_b   6.93828140
_cell_length_c   6.89889468
_cell_angle_alpha   65.51395147
_cell_angle_beta   65.51395147
_cell_angle_gamma   98.62349957
_symmetry_Int_Tables_number   1
_chemical_formula_structural   Li2GeTe4Pb
_chemical_formula_sum   'Li2 Ge1 Te4 Pb1'
_cell_volume   253.45721138
_cell_formula_units_Z   1
loop_
 _symmetry_equiv_pos_site_id
 _symmetry_equiv_pos_as_xyz
  1  'x, y, z'
loop_
 _atom_site_type_symbol
 _atom_site_label
 _atom_site_symmetry_multiplicity
 _atom_site_fract_x
 _atom_site_fract_y
 _atom_site_fract_z
 _atom_site_occupancy
  Li  Li0  1  0.75571773  0.25129653  0.50157512  1
  Li  Li1  1  0.25129653  0.75571773  0.50157512  1
  Ge  Ge2  1  0.50988422  0.50988422  0.98165410  1
  Te  Te3  1  0.87032224  0.87032224  0.57107325  1
  Te  Te4  1  0.54068674  0.13159474  0.00353704  1
  Te  Te5  1  0.13159474  0.54068674  0.00353704  1
  Te  Te6  1  0.49450650  0.49450649  0.37559462  1
  Pb  Pb7  1  0.94609763  0.94609763  0.06122015  1
