# generated using pymatgen
data_TlIO3
_symmetry_space_group_name_H-M   'P 1'
_cell_length_a   4.52360153
_cell_length_b   4.52360153
_cell_length_c   4.52360153
_cell_angle_alpha   89.19072812
_cell_angle_beta   89.19072812
_cell_angle_gamma   89.19072812
_symmetry_Int_Tables_number   1
_chemical_formula_structural   TlIO3
_chemical_formula_sum   'Tl1 I1 O3'
_cell_volume   92.53888409
_cell_formula_units_Z   1
loop_
 _symmetry_equiv_pos_site_id
 _symmetry_equiv_pos_as_xyz
  1  'x, y, z'
loop_
 _atom_site_type_symbol
 _atom_site_label
 _atom_site_symmetry_multiplicity
 _atom_site_fract_x
 _atom_site_fract_y
 _atom_site_fract_z
 _atom_site_occupancy
  Tl  Tl4  1  0.00000000  0.00000000  0.00000000  1.0
  I  I0  1  0.50470000  0.50470000  0.50470000  1.0
  O  O1  1  0.90400000  0.46450000  0.46450000  1.0
  O  O2  1  0.46450000  0.90400000  0.46450000  1.0
  O  O3  1  0.46450000  0.46450000  0.90400000  1.0
