# generated using pymatgen
data_Li2SiSnTe4
_symmetry_space_group_name_H-M   'P 1'
_cell_length_a   6.98807937
_cell_length_b   6.98807937
_cell_length_c   6.78469007
_cell_angle_alpha   64.52169151
_cell_angle_beta   64.52169151
_cell_angle_gamma   95.93502860
_symmetry_Int_Tables_number   1
_chemical_formula_structural   Li2SiSnTe4
_chemical_formula_sum   'Li2 Si1 Sn1 Te4'
_cell_volume   252.53104535
_cell_formula_units_Z   1
loop_
 _symmetry_equiv_pos_site_id
 _symmetry_equiv_pos_as_xyz
  1  'x, y, z'
loop_
 _atom_site_type_symbol
 _atom_site_label
 _atom_site_symmetry_multiplicity
 _atom_site_fract_x
 _atom_site_fract_y
 _atom_site_fract_z
 _atom_site_occupancy
  Li  Li0  1  0.75563213  0.24499872  0.50731719  1
  Li  Li1  1  0.24499872  0.75563213  0.50731719  1
  Si  Si2  1  0.51455163  0.51455163  0.97670231  1
  Sn  Sn3  1  0.92826712  0.92826712  0.06121698  1
  Te  Te4  1  0.85475542  0.85475542  0.56464986  1
  Te  Te5  1  0.54381795  0.14392790  0.01426508  1
  Te  Te6  1  0.14392790  0.54381795  0.01426508  1
  Te  Te7  1  0.51393117  0.51393117  0.35426590  1
