# generated using pymatgen
data_Si3N4
_symmetry_space_group_name_H-M   'P 1'
_cell_length_a   7.75224420
_cell_length_b   7.75224420
_cell_length_c   5.61885196
_cell_angle_alpha   89.99938286
_cell_angle_beta   89.99938286
_cell_angle_gamma   120.00288813
_symmetry_Int_Tables_number   1
_chemical_formula_structural   Si3N4
_chemical_formula_sum   'Si12 N16'
_cell_volume   292.42902142
_cell_formula_units_Z   4
loop_
 _symmetry_equiv_pos_site_id
 _symmetry_equiv_pos_as_xyz
  1  'x, y, z'
loop_
 _atom_site_type_symbol
 _atom_site_label
 _atom_site_symmetry_multiplicity
 _atom_site_fract_x
 _atom_site_fract_y
 _atom_site_fract_z
 _atom_site_occupancy
  Si  Si0  1  0.08194295  0.56965052  0.80360282  1
  Si  Si1  1  0.48765980  0.91794689  0.80367518  1
  Si  Si2  1  0.91387376  0.16724412  0.01152073  1
  Si  Si3  1  0.56965052  0.08194295  0.30360282  1
  Si  Si4  1  0.08614748  0.25339338  0.51153095  1
  Si  Si5  1  0.16724412  0.91387376  0.51152073  1
  Si  Si6  1  0.43027306  0.51230196  0.80378253  1
  Si  Si7  1  0.74660292  0.83270407  0.51165106  1
  Si  Si8  1  0.91794689  0.48765980  0.30367518  1
  Si  Si9  1  0.51230196  0.43027306  0.30378253  1
  Si  Si10  1  0.83270407  0.74660292  0.01165106  1
  Si  Si11  1  0.25339338  0.08614748  0.01153095  1
  N  N12  1  0.34455661  0.39005785  0.53093112  1
  N  N13  1  0.04553717  0.65545169  0.53076646  1
  N  N14  1  0.39005785  0.34455661  0.03093112  1
  N  N15  1  0.60989362  0.95438535  0.53083543  1
  N  N16  1  0.00001998  0.99999295  0.01099193  1
  N  N17  1  0.99648297  0.31479001  0.26515455  1
  N  N18  1  0.99999295  0.00001998  0.51099193  1
  N  N19  1  0.66669869  0.33326602  0.35925273  1
  N  N20  1  0.68160746  0.68525052  0.76535798  1
  N  N21  1  0.65545169  0.04553717  0.03076646  1
  N  N22  1  0.95438535  0.60989362  0.03083543  1
  N  N23  1  0.33326602  0.66669869  0.85925273  1
  N  N24  1  0.00351565  0.31831686  0.76514912  1
  N  N25  1  0.31831686  0.00351565  0.26514912  1
  N  N26  1  0.68525052  0.68160746  0.26535798  1
  N  N27  1  0.31479001  0.99648297  0.76515455  1
