# generated using pymatgen
data_S4IBr5
_symmetry_space_group_name_H-M   'P 1'
_cell_length_a   8.29464948
_cell_length_b   8.29500126
_cell_length_c   8.31166457
_cell_angle_alpha   108.45347015
_cell_angle_beta   111.52010167
_cell_angle_gamma   108.38497228
_symmetry_Int_Tables_number   1
_chemical_formula_structural   S4IBr5
_chemical_formula_sum   'S4 I1 Br5'
_cell_volume   440.20466402
_cell_formula_units_Z   1
loop_
 _symmetry_equiv_pos_site_id
 _symmetry_equiv_pos_as_xyz
  1  'x, y, z'
loop_
 _atom_site_type_symbol
 _atom_site_label
 _atom_site_symmetry_multiplicity
 _atom_site_fract_x
 _atom_site_fract_y
 _atom_site_fract_z
 _atom_site_occupancy
  S  S0  1  0.14407079  0.62942357  0.59164111  1
  S  S1  1  0.59188486  0.44740114  0.96203455  1
  S  S2  1  0.51442188  0.55251105  0.14387248  1
  S  S3  1  0.96186603  0.37001922  0.51439630  1
  I  I4  1  0.23071599  0.00130377  0.23172905  1
  Br  Br5  1  0.60905980  0.60469611  0.78050190  1
  Br  Br6  1  0.78091061  0.17120974  0.17601259  1
  Br  Br7  1  0.00376102  0.82847988  0.60822419  1
  Br  Br8  1  0.17547885  0.39527611  0.00406172  1
  Br  Br9  1  0.49812915  0.99967941  0.49782507  1
