# generated using pymatgen
data_Mg(GaSe2)2
_symmetry_space_group_name_H-M   'P 1'
_cell_length_a   5.80348361
_cell_length_b   5.80380796
_cell_length_c   6.83838136
_cell_angle_alpha   115.09777503
_cell_angle_beta   115.09683793
_cell_angle_gamma   89.99363187
_symmetry_Int_Tables_number   1
_chemical_formula_structural   Mg(GaSe2)2
_chemical_formula_sum   'Mg1 Ga2 Se4'
_cell_volume   184.29789717
_cell_formula_units_Z   1
loop_
 _symmetry_equiv_pos_site_id
 _symmetry_equiv_pos_as_xyz
  1  'x, y, z'
loop_
 _atom_site_type_symbol
 _atom_site_label
 _atom_site_symmetry_multiplicity
 _atom_site_fract_x
 _atom_site_fract_y
 _atom_site_fract_z
 _atom_site_occupancy
  Mg  Mg0  1  0.00004633  0.00008217  0.00005063  1
  Ga  Ga1  1  0.25001936  0.75002416  0.50000097  1
  Ga  Ga2  1  0.50003378  0.50000241  0.99998099  1
  Se  Se3  1  0.40351275  0.39080179  0.27049027  1
  Se  Se4  1  0.86689962  0.87956085  0.27042518  1
  Se  Se5  1  0.60911279  0.13296940  0.72944854  1
  Se  Se6  1  0.12037638  0.59655822  0.72960342  1
