# generated using pymatgen
data_BaTiO3
_symmetry_space_group_name_H-M   'P 1'
_cell_length_a   4.00400000
_cell_length_b   4.00400000
_cell_length_c   4.00400000
_cell_angle_alpha   89.87000000
_cell_angle_beta   90.13000000
_cell_angle_gamma   90.13000000
_symmetry_Int_Tables_number   1
_chemical_formula_structural   BaTiO3
_chemical_formula_sum   'Ba1 Ti1 O3'
_cell_volume   64.19169712
_cell_formula_units_Z   1
loop_
 _symmetry_equiv_pos_site_id
 _symmetry_equiv_pos_as_xyz
  1  'x, y, z'
loop_
 _atom_site_type_symbol
 _atom_site_label
 _atom_site_symmetry_multiplicity
 _atom_site_fract_x
 _atom_site_fract_y
 _atom_site_fract_z
 _atom_site_occupancy
  Ba  Ba0  1  0.00000000  0.00000000  0.00000000  1.0
  Ti  Ti4  1  0.48890000  0.51110000  0.51110000  1.0
  O  O1  1  0.51100000  0.48900000  0.98200000  1.0
  O  O2  1  0.51100000  0.98200000  0.48900000  1.0
  O  O3  1  0.01800000  0.48900000  0.48900000  1.0
