# generated using pymatgen
data_GaSBr
_symmetry_space_group_name_H-M   'P 1'
_cell_length_a   3.74877415
_cell_length_b   5.36937585
_cell_length_c   8.77535220
_cell_angle_alpha   90.00000000
_cell_angle_beta   90.00000000
_cell_angle_gamma   90.00000000
_symmetry_Int_Tables_number   1
_chemical_formula_structural   GaSBr
_chemical_formula_sum   'Ga2 S2 Br2'
_cell_volume   176.63535587
_cell_formula_units_Z   2
loop_
 _symmetry_equiv_pos_site_id
 _symmetry_equiv_pos_as_xyz
  1  'x, y, z'
loop_
 _atom_site_type_symbol
 _atom_site_label
 _atom_site_symmetry_multiplicity
 _atom_site_fract_x
 _atom_site_fract_y
 _atom_site_fract_z
 _atom_site_occupancy
  Ga  Ga0  1  0.00000000  0.83793903  0.61103355  1
  Ga  Ga1  1  0.50000000  0.33793903  0.38896645  1
  S  S2  1  0.00000000  0.07336087  0.38784093  1
  S  S3  1  0.50000000  0.57336087  0.61215907  1
  Br  Br4  1  0.00000000  0.05491010  0.83686144  1
  Br  Br5  1  0.50000000  0.55491010  0.16313856  1
