# generated using pymatgen
data_Na2MgGeS4
_symmetry_space_group_name_H-M   'P 1'
_cell_length_a   6.05780052
_cell_length_b   6.05780052
_cell_length_c   6.05780052
_cell_angle_alpha   105.98121398
_cell_angle_beta   105.98121398
_cell_angle_gamma   116.70235198
_symmetry_Int_Tables_number   1
_chemical_formula_structural   Na2MgGeS4
_chemical_formula_sum   'Na2 Mg1 Ge1 S4'
_cell_volume   169.05984511
_cell_formula_units_Z   1
loop_
 _symmetry_equiv_pos_site_id
 _symmetry_equiv_pos_as_xyz
  1  'x, y, z'
loop_
 _atom_site_type_symbol
 _atom_site_label
 _atom_site_symmetry_multiplicity
 _atom_site_fract_x
 _atom_site_fract_y
 _atom_site_fract_z
 _atom_site_occupancy
  Na  Na0  1  0.00000000  0.50000000  0.50000000  1
  Na  Na1  1  0.50000000  1.00000000  0.50000000  1
  Mg  Mg2  1  0.00000000  0.00000000  0.00000000  1
  Ge  Ge3  1  0.50000000  0.50000000  0.00000000  1
  S  S4  1  0.89071612  0.54956491  0.00000000  1
  S  S5  1  0.10928388  0.10928388  0.65884879  1
  S  S6  1  0.45043509  0.45043509  0.34115121  1
  S  S7  1  0.54956491  0.89071612  1.00000000  1
