# generated using pymatgen
data_LiBSe2
_symmetry_space_group_name_H-M   'P 1'
_cell_length_a   5.98979932
_cell_length_b   6.08003667
_cell_length_c   8.03915194
_cell_angle_alpha   90.00000000
_cell_angle_beta   90.00000000
_cell_angle_gamma   90.00000000
_symmetry_Int_Tables_number   1
_chemical_formula_structural   LiBSe2
_chemical_formula_sum   'Li4 B4 Se8'
_cell_volume   292.77143926
_cell_formula_units_Z   4
loop_
 _symmetry_equiv_pos_site_id
 _symmetry_equiv_pos_as_xyz
  1  'x, y, z'
loop_
 _atom_site_type_symbol
 _atom_site_label
 _atom_site_symmetry_multiplicity
 _atom_site_fract_x
 _atom_site_fract_y
 _atom_site_fract_z
 _atom_site_occupancy
  Li  Li0  1  0.00950312  0.07668567  0.88145325  1
  Li  Li1  1  0.50950312  0.92331433  0.11854675  1
  Li  Li2  1  0.50950312  0.42331433  0.38145325  1
  Li  Li3  1  0.00950312  0.57668567  0.61854675  1
  B  B4  1  0.99880672  0.05789107  0.37455248  1
  B  B5  1  0.49880672  0.94210893  0.62544752  1
  B  B6  1  0.49880672  0.44210893  0.87455248  1
  B  B7  1  0.99880672  0.55789107  0.12544752  1
  Se  Se8  1  0.14910069  0.46529374  0.90372180  1
  Se  Se9  1  0.64910069  0.53470626  0.09627820  1
  Se  Se10  1  0.64910069  0.03470626  0.40372180  1
  Se  Se11  1  0.14910069  0.96529374  0.59627820  1
  Se  Se12  1  0.59238947  0.11146243  0.83968073  1
  Se  Se13  1  0.09238947  0.88853757  0.16031927  1
  Se  Se14  1  0.09238947  0.38853757  0.33968073  1
  Se  Se15  1  0.59238947  0.61146243  0.66031927  1
