# generated using pymatgen
data_NaGaS2
_symmetry_space_group_name_H-M   'P 1'
_cell_length_a   6.30196426
_cell_length_b   6.30226490
_cell_length_c   7.20052662
_cell_angle_alpha   102.67570309
_cell_angle_beta   102.74026363
_cell_angle_gamma   119.81730029
_symmetry_Int_Tables_number   1
_chemical_formula_structural   NaGaS2
_chemical_formula_sum   'Na2 Ga2 S4'
_cell_volume   222.96365637
_cell_formula_units_Z   2
loop_
 _symmetry_equiv_pos_site_id
 _symmetry_equiv_pos_as_xyz
  1  'x, y, z'
loop_
 _atom_site_type_symbol
 _atom_site_label
 _atom_site_symmetry_multiplicity
 _atom_site_fract_x
 _atom_site_fract_y
 _atom_site_fract_z
 _atom_site_occupancy
  Na  Na0  1  0.14854378  0.54071352  0.42871118  1
  Na  Na1  1  0.45255393  0.84643189  0.03803346  1
  Ga  Ga2  1  0.95915115  0.07142998  0.73340186  1
  Ga  Ga3  1  0.67862293  0.35188920  0.73332736  1
  S  S4  1  0.88201563  0.27456474  0.99654274  1
  S  S5  1  0.61865204  0.01166966  0.47020642  1
  S  S6  1  0.01300967  0.74398006  0.73277683  1
  S  S7  1  0.35186902  0.40651588  0.73415495  1
