# generated using pymatgen
data_Zr3Ti(PbO3)4
_symmetry_space_group_name_H-M   'P 1'
_cell_length_a   11.72818800
_cell_length_b   4.25015100
_cell_length_c   5.93701362
_cell_angle_alpha   88.81458940
_cell_angle_beta   90.00000000
_cell_angle_gamma   90.00000000
_symmetry_Int_Tables_number   1
_chemical_formula_structural   Zr3Ti(PbO3)4
_chemical_formula_sum   'Zr3 Ti1 Pb4 O12'
_cell_volume   295.87642869
_cell_formula_units_Z   1
loop_
 _symmetry_equiv_pos_site_id
 _symmetry_equiv_pos_as_xyz
  1  'x, y, z'
loop_
 _atom_site_type_symbol
 _atom_site_label
 _atom_site_symmetry_multiplicity
 _atom_site_fract_x
 _atom_site_fract_y
 _atom_site_fract_z
 _atom_site_occupancy
  Zr  Zr0  1  0.75433500  0.96878400  0.47280100  1
  Zr  Zr1  1  0.50000000  0.96913800  0.97079000  1
  Zr  Zr2  1  0.24566500  0.96878400  0.47280100  1
  Ti  Ti3  1  0.00000000  0.94628100  0.96907800  1
  Pb  Pb4  1  0.50000000  0.41691100  0.42166500  1
  Pb  Pb5  1  0.24028700  0.41304900  0.92813600  1
  Pb  Pb6  1  0.00000000  0.41929100  0.41364800  1
  Pb  Pb7  1  0.75971300  0.41304900  0.92813600  1
  O  O8  1  0.37948700  0.01286500  0.25466300  1
  O  O9  1  0.12179300  0.01266300  0.76079400  1
  O  O10  1  0.88428800  0.02082100  0.23534400  1
  O  O11  1  0.63477200  0.01463800  0.75126500  1
  O  O12  1  0.62051300  0.01286500  0.25466300  1
  O  O13  1  0.36522800  0.01463800  0.75126500  1
  O  O14  1  0.11571200  0.02082100  0.23534400  1
  O  O15  1  0.87820700  0.01266300  0.76079400  1
  O  O16  1  0.50000000  0.48847900  0.01577400  1
  O  O17  1  0.24170800  0.48777300  0.51259300  1
  O  O18  1  0.00000000  0.52079700  0.99994000  1
  O  O19  1  0.75829200  0.48777300  0.51259300  1
