# generated using pymatgen
data_HBr
_symmetry_space_group_name_H-M   'P 1'
_cell_length_a   3.93052857
_cell_length_b   3.93539716
_cell_length_c   15.43273389
_cell_angle_alpha   90.00000000
_cell_angle_beta   90.00000000
_cell_angle_gamma   112.02767702
_symmetry_Int_Tables_number   1
_chemical_formula_structural   HBr
_chemical_formula_sum   'H1 Br1'
_cell_volume   221.29083833
_cell_formula_units_Z   1
loop_
 _symmetry_equiv_pos_site_id
 _symmetry_equiv_pos_as_xyz
  1  'x, y, z'
loop_
 _atom_site_type_symbol
 _atom_site_label
 _atom_site_symmetry_multiplicity
 _atom_site_fract_x
 _atom_site_fract_y
 _atom_site_fract_z
 _atom_site_occupancy
  H  H0  1  0.29092860  0.84950803  0.51402000  1
  Br  Br1  1  0.07861323  0.05950782  0.48598000  1
