# generated using pymatgen
data_Na2MgGeS4
_symmetry_space_group_name_H-M   'P 1'
_cell_length_a   6.41468815
_cell_length_b   6.41482785
_cell_length_c   6.58684154
_cell_angle_alpha   119.06960396
_cell_angle_beta   119.08965353
_cell_angle_gamma   90.10912739
_symmetry_Int_Tables_number   1
_chemical_formula_structural   Na2MgGeS4
_chemical_formula_sum   'Na2 Mg1 Ge1 S4'
_cell_volume   196.69870740
_cell_formula_units_Z   1
loop_
 _symmetry_equiv_pos_site_id
 _symmetry_equiv_pos_as_xyz
  1  'x, y, z'
loop_
 _atom_site_type_symbol
 _atom_site_label
 _atom_site_symmetry_multiplicity
 _atom_site_fract_x
 _atom_site_fract_y
 _atom_site_fract_z
 _atom_site_occupancy
  Na  Na0  1  0.51370017  0.01355031  0.02730748  1
  Na  Na1  1  0.76339278  0.76328085  0.52666057  1
  Mg  Mg2  1  0.01412943  0.51420490  0.02831409  1
  Ge  Ge3  1  0.26424747  0.26429990  0.52856119  1
  S  S4  1  0.94890775  0.36527415  0.27881382  1
  S  S5  1  0.61550730  0.57993947  0.77864588  1
  S  S6  1  0.16316306  0.19876851  0.77870469  1
  S  S7  1  0.32990304  0.91363090  0.27889028  1
