# generated using pymatgen
data_YSc(BiO3)2
_symmetry_space_group_name_H-M   'P 1'
_cell_length_a   6.04578800
_cell_length_b   6.04578800
_cell_length_c   6.04578800
_cell_angle_alpha   58.51262482
_cell_angle_beta   58.51262483
_cell_angle_gamma   58.51262483
_symmetry_Int_Tables_number   1
_chemical_formula_structural   YSc(BiO3)2
_chemical_formula_sum   'Y1 Sc1 Bi2 O6'
_cell_volume   150.94221645
_cell_formula_units_Z   1
loop_
 _symmetry_equiv_pos_site_id
 _symmetry_equiv_pos_as_xyz
  1  'x, y, z'
loop_
 _atom_site_type_symbol
 _atom_site_label
 _atom_site_symmetry_multiplicity
 _atom_site_fract_x
 _atom_site_fract_y
 _atom_site_fract_z
 _atom_site_occupancy
  Y  Y0  1  0.19176347  0.19176347  0.19176347  1
  Sc  Sc1  1  0.68834975  0.68834975  0.68834975  1
  Bi  Bi2  1  0.47604363  0.47604363  0.47604363  1
  Bi  Bi3  1  0.97589776  0.97589776  0.97589776  1
  O  O4  1  0.02234833  0.82848831  0.39700888  1
  O  O5  1  0.39700888  0.02234833  0.82848831  1
  O  O6  1  0.82848831  0.39700888  0.02234833  1
  O  O7  1  0.87664202  0.33534990  0.54664883  1
  O  O8  1  0.54664883  0.87664202  0.33534990  1
  O  O9  1  0.33534990  0.54664883  0.87664202  1
