# generated using pymatgen
data_H2ICl
_symmetry_space_group_name_H-M   'P 1'
_cell_length_a   4.75668945
_cell_length_b   4.78821147
_cell_length_c   5.71611437
_cell_angle_alpha   91.13177862
_cell_angle_beta   90.50380589
_cell_angle_gamma   107.60388762
_symmetry_Int_Tables_number   1
_chemical_formula_structural   H2ICl
_chemical_formula_sum   'H2 I1 Cl1'
_cell_volume   124.05451821
_cell_formula_units_Z   1
loop_
 _symmetry_equiv_pos_site_id
 _symmetry_equiv_pos_as_xyz
  1  'x, y, z'
loop_
 _atom_site_type_symbol
 _atom_site_label
 _atom_site_symmetry_multiplicity
 _atom_site_fract_x
 _atom_site_fract_y
 _atom_site_fract_z
 _atom_site_occupancy
  H  H0  1  0.07473457  0.57661912  0.85239793  1
  H  H1  1  0.19400381  0.69278141  0.33225625  1
  I  I2  1  0.87080348  0.37314498  0.64125811  1
  Cl  Cl3  1  0.36045815  0.85745349  0.17408670  1
