# generated using pymatgen
data_BAsO4
_symmetry_space_group_name_H-M   'P 1'
_cell_length_a   4.46580000
_cell_length_b   4.64531949
_cell_length_c   4.46580000
_cell_angle_alpha   118.72965208
_cell_angle_beta   90.00000000
_cell_angle_gamma   118.72965208
_symmetry_Int_Tables_number   1
_chemical_formula_structural   BAsO4
_chemical_formula_sum   'B1 As1 O4'
_cell_volume   67.94606334
_cell_formula_units_Z   1
loop_
 _symmetry_equiv_pos_site_id
 _symmetry_equiv_pos_as_xyz
  1  'x, y, z'
loop_
 _atom_site_type_symbol
 _atom_site_label
 _atom_site_symmetry_multiplicity
 _atom_site_fract_x
 _atom_site_fract_y
 _atom_site_fract_z
 _atom_site_occupancy
  B  B1  1  0.75000000  0.50000000  0.25000000  1.0
  As  As0  1  0.00000000  0.00000000  0.00000000  1.0
  O  O2  1  0.02546000  0.73524000  0.59411000  1.0
  O  O3  1  0.85887000  0.26476000  0.97454000  1.0
  O  O4  1  0.70978000  0.73524000  0.14113000  1.0
  O  O5  1  0.40589000  0.26476000  0.29022000  1.0
