# generated using pymatgen
data_CsBe2BO3F2
_symmetry_space_group_name_H-M   'P 1'
_cell_length_a   4.44353267
_cell_length_b   4.44353267
_cell_length_c   7.54400000
_cell_angle_alpha   73.02951574
_cell_angle_beta   73.02951574
_cell_angle_gamma   60.03673369
_symmetry_Int_Tables_number   1
_chemical_formula_structural   CsBe2BO3F2
_chemical_formula_sum   'Cs1 Be2 B1 O3 F2'
_cell_volume   121.49444933
_cell_formula_units_Z   1
loop_
 _symmetry_equiv_pos_site_id
 _symmetry_equiv_pos_as_xyz
  1  'x, y, z'
loop_
 _atom_site_type_symbol
 _atom_site_label
 _atom_site_symmetry_multiplicity
 _atom_site_fract_x
 _atom_site_fract_y
 _atom_site_fract_z
 _atom_site_occupancy
  Cs  Cs3  1  0.00000000  0.00000000  0.00000000  1.0
  Be  Be1  1  0.79700000  0.81900000  0.58200000  1.0
  Be  Be2  1  0.18100000  0.20300000  0.41800000  1.0
  B  B0  1  0.48400000  0.51600000  0.50000000  1.0
  O  O6  1  0.50700000  0.18500000  0.49900000  1.0
  O  O7  1  0.19700000  0.80300000  0.50000000  1.0
  O  O8  1  0.81500000  0.49300000  0.50100000  1.0
  F  F4  1  0.24000000  0.29400000  0.20400000  1.0
  F  F5  1  0.70600000  0.76000000  0.79600000  1.0
