# generated using pymatgen
data_BClF2
_symmetry_space_group_name_H-M   'P 1'
_cell_length_a   5.21644257
_cell_length_b   5.21644257
_cell_length_c   5.21644257
_cell_angle_alpha   120.63950643
_cell_angle_beta   113.63571273
_cell_angle_gamma   95.13168381
_symmetry_Int_Tables_number   1
_chemical_formula_structural   BClF2
_chemical_formula_sum   'B1 Cl1 F2'
_cell_volume   103.82299468
_cell_formula_units_Z   1
loop_
 _symmetry_equiv_pos_site_id
 _symmetry_equiv_pos_as_xyz
  1  'x, y, z'
loop_
 _atom_site_type_symbol
 _atom_site_label
 _atom_site_symmetry_multiplicity
 _atom_site_fract_x
 _atom_site_fract_y
 _atom_site_fract_z
 _atom_site_occupancy
  B  B0  1  0.63379241  -0.00000000  0.63379241  1
  Cl  Cl1  1  0.93789825  0.00000000  0.93789825  1
  F  F2  1  0.35194934  0.83779467  0.51415467  1
  F  F3  1  0.67636000  0.16220533  0.51415467  1
