# generated using pymatgen
data_CsNaMoO4
_symmetry_space_group_name_H-M   'P 1'
_cell_length_a   6.38011992
_cell_length_b   6.38011992
_cell_length_c   6.38011992
_cell_angle_alpha   120.25342018
_cell_angle_beta   120.25342018
_cell_angle_gamma   89.56162097
_symmetry_Int_Tables_number   1
_chemical_formula_structural   CsNaMoO4
_chemical_formula_sum   'Cs1 Na1 Mo1 O4'
_cell_volume   182.93256131
_cell_formula_units_Z   1
loop_
 _symmetry_equiv_pos_site_id
 _symmetry_equiv_pos_as_xyz
  1  'x, y, z'
loop_
 _atom_site_type_symbol
 _atom_site_label
 _atom_site_symmetry_multiplicity
 _atom_site_fract_x
 _atom_site_fract_y
 _atom_site_fract_z
 _atom_site_occupancy
  Cs  Cs0  1  0.00000000  0.00000000  0.00000000  1
  Na  Na1  1  0.50000000  0.50000000  -0.00000000  1
  Mo  Mo2  1  0.25000000  0.75000000  0.50000000  1
  O  O3  1  0.46506272  0.07269766  0.81030849  1
  O  O4  1  0.92730234  0.73761083  0.39236506  1
  O  O5  1  0.26238917  0.65475423  0.18969151  1
  O  O6  1  0.34524577  0.53493728  0.60763494  1
