# generated using pymatgen
data_H5NCl2
_symmetry_space_group_name_H-M   'P 1'
_cell_length_a   5.29054300
_cell_length_b   5.29658962
_cell_length_c   5.39953201
_cell_angle_alpha   101.63776348
_cell_angle_beta   110.38855040
_cell_angle_gamma   116.08058371
_symmetry_Int_Tables_number   1
_chemical_formula_structural   H5NCl2
_chemical_formula_sum   'H5 N1 Cl2'
_cell_volume   115.51446260
_cell_formula_units_Z   1
loop_
 _symmetry_equiv_pos_site_id
 _symmetry_equiv_pos_as_xyz
  1  'x, y, z'
loop_
 _atom_site_type_symbol
 _atom_site_label
 _atom_site_symmetry_multiplicity
 _atom_site_fract_x
 _atom_site_fract_y
 _atom_site_fract_z
 _atom_site_occupancy
  H  H0  1  0.20449891  0.87844487  0.13862298  1
  H  H1  1  0.21333813  0.20838094  0.17307102  1
  H  H2  1  0.56076177  0.00311771  0.61982578  1
  H  H3  1  0.92770650  0.87906676  0.86241805  1
  H  H4  1  0.90857251  0.90404453  0.17272344  1
  N  N5  1  0.06339550  0.96765306  0.08674261  1
  Cl  Cl6  1  0.55945750  0.20676071  0.82189897  1
  Cl  Cl7  1  0.56227120  0.72953644  0.34769517  1
