# generated using pymatgen
data_BaBF5
_symmetry_space_group_name_H-M   'P 1'
_cell_length_a   4.59554585
_cell_length_b   4.59655473
_cell_length_c   5.37514430
_cell_angle_alpha   89.96105073
_cell_angle_beta   89.96089472
_cell_angle_gamma   64.23317645
_symmetry_Int_Tables_number   1
_chemical_formula_structural   BaBF5
_chemical_formula_sum   'Ba1 B1 F5'
_cell_volume   102.25329421
_cell_formula_units_Z   1
loop_
 _symmetry_equiv_pos_site_id
 _symmetry_equiv_pos_as_xyz
  1  'x, y, z'
loop_
 _atom_site_type_symbol
 _atom_site_label
 _atom_site_symmetry_multiplicity
 _atom_site_fract_x
 _atom_site_fract_y
 _atom_site_fract_z
 _atom_site_occupancy
  Ba  Ba0  1  0.95804480  0.95771622  0.86129846  1
  B  B1  1  0.54879328  0.54885147  0.36157690  1
  F  F2  1  0.65041173  0.65054800  0.14179832  1
  F  F3  1  0.64968691  0.65032242  0.58164236  1
  F  F4  1  0.29824491  0.29819332  0.86144375  1
  F  F5  1  0.68556381  0.20937341  0.36158603  1
  F  F6  1  0.20925455  0.68499516  0.36135518  1
