# generated using pymatgen
data_Al2CdTe4
_symmetry_space_group_name_H-M   'P 1'
_cell_length_a   7.40098030
_cell_length_b   7.40098030
_cell_length_c   7.40098030
_cell_angle_alpha   130.08874590
_cell_angle_beta   130.08874590
_cell_angle_gamma   73.26492972
_symmetry_Int_Tables_number   1
_chemical_formula_structural   Al2CdTe4
_chemical_formula_sum   'Al2 Cd1 Te4'
_cell_volume   231.64033151
_cell_formula_units_Z   1
loop_
 _symmetry_equiv_pos_site_id
 _symmetry_equiv_pos_as_xyz
  1  'x, y, z'
loop_
 _atom_site_type_symbol
 _atom_site_label
 _atom_site_symmetry_multiplicity
 _atom_site_fract_x
 _atom_site_fract_y
 _atom_site_fract_z
 _atom_site_occupancy
  Al  Al0  1  0.25000000  0.75000000  0.50000000  1
  Al  Al1  1  0.50000000  0.50000000  -0.00000000  1
  Cd  Cd2  1  0.00000000  0.00000000  0.00000000  1
  Te  Te3  1  0.40792445  0.87847531  0.01323408  1
  Te  Te4  1  0.12152469  0.13475877  0.52944914  1
  Te  Te5  1  0.60530963  0.59207555  0.47055086  1
  Te  Te6  1  0.86524123  0.39469037  0.98676592  1
