# generated using pymatgen
data_NaLiSiF6
_symmetry_space_group_name_H-M   'P 1'
_cell_length_a   5.02977908
_cell_length_b   5.02977908
_cell_length_c   4.85622815
_cell_angle_alpha   90.00000000
_cell_angle_beta   90.00000000
_cell_angle_gamma   120.00000000
_symmetry_Int_Tables_number   1
_chemical_formula_structural   NaLiSiF6
_chemical_formula_sum   'Na1 Li1 Si1 F6'
_cell_volume   106.39654731
_cell_formula_units_Z   1
loop_
 _symmetry_equiv_pos_site_id
 _symmetry_equiv_pos_as_xyz
  1  'x, y, z'
loop_
 _atom_site_type_symbol
 _atom_site_label
 _atom_site_symmetry_multiplicity
 _atom_site_fract_x
 _atom_site_fract_y
 _atom_site_fract_z
 _atom_site_occupancy
  Na  Na0  1  0.00000000  0.00000000  0.00000000  1
  Li  Li1  1  0.33333333  0.66666667  0.50000000  1
  Si  Si2  1  0.66666667  0.33333333  0.50000000  1
  F  F3  1  0.39155504  0.34436627  0.29809008  1
  F  F4  1  0.95281123  0.60844496  0.29809008  1
  F  F5  1  0.65563373  0.04718877  0.29809008  1
  F  F6  1  0.95281123  0.34436627  0.70190992  1
  F  F7  1  0.39155504  0.04718877  0.70190992  1
  F  F8  1  0.65563373  0.60844496  0.70190992  1
