# generated using pymatgen
data_Li2CaSiO4
_symmetry_space_group_name_H-M   'P 1'
_cell_length_a   4.82215237
_cell_length_b   4.82215237
_cell_length_c   4.82215237
_cell_angle_alpha   95.47608699
_cell_angle_beta   116.89037216
_cell_angle_gamma   116.89037216
_symmetry_Int_Tables_number   1
_chemical_formula_structural   Li2CaSiO4
_chemical_formula_sum   'Li2 Ca1 Si1 O4'
_cell_volume   82.60637372
_cell_formula_units_Z   1
loop_
 _symmetry_equiv_pos_site_id
 _symmetry_equiv_pos_as_xyz
  1  'x, y, z'
loop_
 _atom_site_type_symbol
 _atom_site_label
 _atom_site_symmetry_multiplicity
 _atom_site_fract_x
 _atom_site_fract_y
 _atom_site_fract_z
 _atom_site_occupancy
  Li  Li1  1  0.50000000  0.25000000  0.75000000  1.0
  Li  Li2  1  0.50000000  0.75000000  0.25000000  1.0
  Ca  Ca0  1  0.00000000  0.50000000  0.50000000  1.0
  Si  Si7  1  0.00000000  0.00000000  0.00000000  1.0
  O  O3  1  0.00000000  0.66900000  0.04700000  1.0
  O  O4  1  0.00000000  0.04700000  0.66900000  1.0
  O  O5  1  0.37800000  0.33100000  0.33100000  1.0
  O  O6  1  0.62200000  0.95300000  0.95300000  1.0
