# generated using pymatgen
data_HCl
_symmetry_space_group_name_H-M   'P 1'
_cell_length_a   4.72248096
_cell_length_b   5.22673590
_cell_length_c   20.24105570
_cell_angle_alpha   90.00000000
_cell_angle_beta   90.00000000
_cell_angle_gamma   90.00000000
_symmetry_Int_Tables_number   1
_chemical_formula_structural   HCl
_chemical_formula_sum   'H4 Cl4'
_cell_volume   499.61323201
_cell_formula_units_Z   4
loop_
 _symmetry_equiv_pos_site_id
 _symmetry_equiv_pos_as_xyz
  1  'x, y, z'
loop_
 _atom_site_type_symbol
 _atom_site_label
 _atom_site_symmetry_multiplicity
 _atom_site_fract_x
 _atom_site_fract_y
 _atom_site_fract_z
 _atom_site_occupancy
  H  H0  1  0.80656036  0.79784808  0.62946596  1
  H  H1  1  0.19343964  0.79784808  0.37053403  1
  H  H2  1  0.69343964  0.29784808  0.62946596  1
  H  H3  1  0.30656036  0.29784808  0.37053403  1
  Cl  Cl4  1  0.50910768  0.10765180  0.62939336  1
  Cl  Cl5  1  0.49089232  0.10765180  0.37060664  1
  Cl  Cl6  1  0.99089232  0.60765180  0.62939336  1
  Cl  Cl7  1  0.00910768  0.60765180  0.37060664  1
