# generated using pymatgen
data_H2Se
_symmetry_space_group_name_H-M   'P 1'
_cell_length_a   3.95640507
_cell_length_b   3.95640507
_cell_length_c   16.32148580
_cell_angle_alpha   90.00000000
_cell_angle_beta   90.00000000
_cell_angle_gamma   65.98931399
_symmetry_Int_Tables_number   1
_chemical_formula_structural   H2Se
_chemical_formula_sum   'H2 Se1'
_cell_volume   233.37551076
_cell_formula_units_Z   1
loop_
 _symmetry_equiv_pos_site_id
 _symmetry_equiv_pos_as_xyz
  1  'x, y, z'
loop_
 _atom_site_type_symbol
 _atom_site_label
 _atom_site_symmetry_multiplicity
 _atom_site_fract_x
 _atom_site_fract_y
 _atom_site_fract_z
 _atom_site_occupancy
  H  H0  1  0.11936721  0.13214244  0.54048301  1
  H  H1  1  0.86785755  0.88063278  0.45951699  1
  Se  Se2  1  0.75160730  0.24839269  0.50000000  1
