# generated using pymatgen
data_BaHf(BO3)2
_symmetry_space_group_name_H-M   'P 1'
_cell_length_a   11.85158052
_cell_length_b   11.85158052
_cell_length_c   11.85158052
_cell_angle_alpha   25.30222274
_cell_angle_beta   25.30222274
_cell_angle_gamma   25.30222274
_symmetry_Int_Tables_number   1
_chemical_formula_structural   BaHf(BO3)2
_chemical_formula_sum   'Ba2 Hf2 B4 O12'
_cell_volume   267.61487996
_cell_formula_units_Z   2
loop_
 _symmetry_equiv_pos_site_id
 _symmetry_equiv_pos_as_xyz
  1  'x, y, z'
loop_
 _atom_site_type_symbol
 _atom_site_label
 _atom_site_symmetry_multiplicity
 _atom_site_fract_x
 _atom_site_fract_y
 _atom_site_fract_z
 _atom_site_occupancy
  Ba  Ba0  1  0.49990700  0.49990700  0.49990700  1
  Ba  Ba1  1  0.99990700  0.99990700  0.99990700  1
  Hf  Hf2  1  0.25094433  0.25094433  0.25094433  1
  Hf  Hf3  1  0.75094433  0.75094433  0.75094433  1
  B  B4  1  0.38307567  0.38307567  0.38307567  1
  B  B5  1  0.88307567  0.88307567  0.88307567  1
  B  B6  1  0.11960867  0.11960867  0.11960867  1
  B  B7  1  0.61960867  0.61960867  0.61960867  1
  O  O8  1  0.08359600  0.59401000  0.46917900  1
  O  O9  1  0.46917900  0.08359600  0.59401000  1
  O  O10  1  0.59401000  0.46917900  0.08359600  1
  O  O11  1  0.96917900  0.09401000  0.58359600  1
  O  O12  1  0.58359600  0.96917900  0.09401000  1
  O  O13  1  0.09401000  0.58359600  0.96917900  1
  O  O14  1  0.92115800  0.01860600  0.42222500  1
  O  O15  1  0.42222500  0.92115800  0.01860600  1
  O  O16  1  0.01860600  0.42222500  0.92115800  1
  O  O17  1  0.92222500  0.51860600  0.42115800  1
  O  O18  1  0.42115800  0.92222500  0.51860600  1
  O  O19  1  0.51860600  0.42115800  0.92222500  1
