# generated using pymatgen
data_BeHCl
_symmetry_space_group_name_H-M   'P 1'
_cell_length_a   6.03133701
_cell_length_b   6.03133701
_cell_length_c   3.87390457
_cell_angle_alpha   89.70596807
_cell_angle_beta   89.70596807
_cell_angle_gamma   39.01034264
_symmetry_Int_Tables_number   1
_chemical_formula_structural   BeHCl
_chemical_formula_sum   'Be2 H2 Cl2'
_cell_volume   88.70299240
_cell_formula_units_Z   2
loop_
 _symmetry_equiv_pos_site_id
 _symmetry_equiv_pos_as_xyz
  1  'x, y, z'
loop_
 _atom_site_type_symbol
 _atom_site_label
 _atom_site_symmetry_multiplicity
 _atom_site_fract_x
 _atom_site_fract_y
 _atom_site_fract_z
 _atom_site_occupancy
  Be  Be0  1  0.60526816  0.39473184  0.00000000  1
  Be  Be1  1  0.19643406  0.80356594  0.50000000  1
  H  H2  1  0.34025183  0.53864969  0.75099787  1
  H  H3  1  0.46135031  0.65974817  0.24900213  1
  Cl  Cl4  1  0.02096330  0.21926766  0.74810371  1
  Cl  Cl5  1  0.78073234  0.97903670  0.25189629  1
