# generated using pymatgen
data_BeHCl
_symmetry_space_group_name_H-M   'P 1'
_cell_length_a   7.15206910
_cell_length_b   7.15206910
_cell_length_c   4.17856260
_cell_angle_alpha   90.00000000
_cell_angle_beta   90.00000000
_cell_angle_gamma   153.61018448
_symmetry_Int_Tables_number   1
_chemical_formula_structural   BeHCl
_chemical_formula_sum   'Be2 H2 Cl2'
_cell_volume   95.00327786
_cell_formula_units_Z   2
loop_
 _symmetry_equiv_pos_site_id
 _symmetry_equiv_pos_as_xyz
  1  'x, y, z'
loop_
 _atom_site_type_symbol
 _atom_site_label
 _atom_site_symmetry_multiplicity
 _atom_site_fract_x
 _atom_site_fract_y
 _atom_site_fract_z
 _atom_site_occupancy
  Be  Be0  1  0.55482922  0.44517078  0.99486204  1
  Be  Be1  1  0.44517078  0.55482922  0.49486204  1
  H  H2  1  0.53569700  0.46430300  0.33365556  1
  H  H3  1  0.46430300  0.53569700  0.83365556  1
  Cl  Cl4  1  0.86366270  0.13633730  0.40085240  1
  Cl  Cl5  1  0.13633730  0.86366270  0.90085240  1
