# generated using pymatgen
data_H4OF2
_symmetry_space_group_name_H-M   'P 1'
_cell_length_a   4.41869246
_cell_length_b   4.41869246
_cell_length_c   4.00220187
_cell_angle_alpha   70.56085061
_cell_angle_beta   70.56085061
_cell_angle_gamma   87.05800664
_symmetry_Int_Tables_number   1
_chemical_formula_structural   H4OF2
_chemical_formula_sum   'H4 O1 F2'
_cell_volume   69.33196948
_cell_formula_units_Z   1
loop_
 _symmetry_equiv_pos_site_id
 _symmetry_equiv_pos_as_xyz
  1  'x, y, z'
loop_
 _atom_site_type_symbol
 _atom_site_label
 _atom_site_symmetry_multiplicity
 _atom_site_fract_x
 _atom_site_fract_y
 _atom_site_fract_z
 _atom_site_occupancy
  H  H0  1  0.77442834  0.77442834  0.26681386  1
  H  H1  1  0.45530876  0.45530876  0.66994369  1
  H  H2  1  0.08558368  0.80253465  0.88066797  1
  H  H3  1  0.80253465  0.08558368  0.88066797  1
  O  O4  1  0.92717931  0.92717931  0.04024793  1
  F  F5  1  0.66387936  0.29108589  0.63082879  1
  F  F6  1  0.29108589  0.66387936  0.63082879  1
