# generated using pymatgen
data_AlPO4
_symmetry_space_group_name_H-M   'P 1'
_cell_length_a   4.75933294
_cell_length_b   4.75933294
_cell_length_c   4.75933294
_cell_angle_alpha   92.20434921
_cell_angle_beta   118.73558440
_cell_angle_gamma   118.73558440
_symmetry_Int_Tables_number   1
_chemical_formula_structural   AlPO4
_chemical_formula_sum   'Al1 P1 O4'
_cell_volume   77.62425017
_cell_formula_units_Z   1
loop_
 _symmetry_equiv_pos_site_id
 _symmetry_equiv_pos_as_xyz
  1  'x, y, z'
loop_
 _atom_site_type_symbol
 _atom_site_label
 _atom_site_symmetry_multiplicity
 _atom_site_fract_x
 _atom_site_fract_y
 _atom_site_fract_z
 _atom_site_occupancy
  Al  Al0  1  0.00000000  0.00000000  0.00000000  1.0
  P  P5  1  0.50000000  0.75000000  0.25000000  1.0
  O  O1  1  0.76390000  0.89380000  0.61010000  1.0
  O  O2  1  0.71630000  0.87010000  0.10620000  1.0
  O  O3  1  0.23610000  0.84620000  0.12990000  1.0
  O  O4  1  0.28370000  0.38990000  0.15380000  1.0
