# generated using pymatgen
data_Br
_symmetry_space_group_name_H-M   'P 1'
_cell_length_a   5.17516682
_cell_length_b   5.20681840
_cell_length_c   11.57850386
_cell_angle_alpha   90.45213733
_cell_angle_beta   89.79867301
_cell_angle_gamma   119.49001178
_symmetry_Int_Tables_number   1
_chemical_formula_structural   Br
_chemical_formula_sum   Br6
_cell_volume   271.56592068
_cell_formula_units_Z   6
loop_
 _symmetry_equiv_pos_site_id
 _symmetry_equiv_pos_as_xyz
  1  'x, y, z'
loop_
 _atom_site_type_symbol
 _atom_site_label
 _atom_site_symmetry_multiplicity
 _atom_site_fract_x
 _atom_site_fract_y
 _atom_site_fract_z
 _atom_site_occupancy
  Br  Br0  1  0.54468476  0.07037564  0.35079825  1
  Br  Br1  1  0.17107729  0.89899411  0.51718084  1
  Br  Br2  1  0.17334024  0.44313334  0.01782422  1
  Br  Br3  1  0.34279678  0.24109006  0.18446660  1
  Br  Br4  1  0.79971792  0.69757323  0.68406971  1
  Br  Br5  1  0.00178301  0.07003362  0.85104038  1
