# generated using pymatgen
data_BiICl2
_symmetry_space_group_name_H-M   'P 1'
_cell_length_a   7.30782152
_cell_length_b   7.30782152
_cell_length_c   7.39998695
_cell_angle_alpha   74.09896266
_cell_angle_beta   74.09896266
_cell_angle_gamma   111.09768193
_symmetry_Int_Tables_number   1
_chemical_formula_structural   BiICl2
_chemical_formula_sum   'Bi2 I2 Cl4'
_cell_volume   322.57440427
_cell_formula_units_Z   2
loop_
 _symmetry_equiv_pos_site_id
 _symmetry_equiv_pos_as_xyz
  1  'x, y, z'
loop_
 _atom_site_type_symbol
 _atom_site_label
 _atom_site_symmetry_multiplicity
 _atom_site_fract_x
 _atom_site_fract_y
 _atom_site_fract_z
 _atom_site_occupancy
  Bi  Bi0  1  0.20360449  0.01875476  0.42020277  1
  Bi  Bi1  1  0.01875476  0.20360449  0.92020277  1
  I  I2  1  0.44411861  0.25301333  0.63464080  1
  I  I3  1  0.25301333  0.44411861  0.13464080  1
  Cl  Cl4  1  0.09279929  0.59379508  0.64850552  1
  Cl  Cl5  1  0.96699623  0.84713921  0.21038591  1
  Cl  Cl6  1  0.59379508  0.09279929  0.14850552  1
  Cl  Cl7  1  0.84713921  0.96699623  0.71038591  1
