# generated using pymatgen
data_HfTl2BrCl5
_symmetry_space_group_name_H-M   'P 1'
_cell_length_a   7.44242446
_cell_length_b   7.44242446
_cell_length_c   7.44242446
_cell_angle_alpha   121.65337888
_cell_angle_beta   121.65337888
_cell_angle_gamma   87.15935165
_symmetry_Int_Tables_number   1
_chemical_formula_structural   HfTl2BrCl5
_chemical_formula_sum   'Hf1 Tl2 Br1 Cl5'
_cell_volume   283.82919092
_cell_formula_units_Z   1
loop_
 _symmetry_equiv_pos_site_id
 _symmetry_equiv_pos_as_xyz
  1  'x, y, z'
loop_
 _atom_site_type_symbol
 _atom_site_label
 _atom_site_symmetry_multiplicity
 _atom_site_fract_x
 _atom_site_fract_y
 _atom_site_fract_z
 _atom_site_occupancy
  Hf  Hf0  1  0.98752802  0.98752802  -0.00000000  1
  Tl  Tl1  1  0.28428842  0.78428842  0.50000000  1
  Tl  Tl2  1  0.78428842  0.28428842  0.50000000  1
  Br  Br3  1  0.23325219  0.23325219  -0.00000000  1
  Cl  Cl4  1  0.74847096  0.74847096  0.52154536  1
  Cl  Cl5  1  0.22692560  0.22692560  0.47845464  1
  Cl  Cl6  1  0.74847096  0.22692560  0.00000000  1
  Cl  Cl7  1  0.22692560  0.74847096  -0.00000000  1
  Cl  Cl8  1  0.75981282  0.75981282  -0.00000000  1
