# generated using pymatgen
data_HI
_symmetry_space_group_name_H-M   'P 1'
_cell_length_a   7.44649000
_cell_length_b   7.51405000
_cell_length_c   9.30584000
_cell_angle_alpha   90.00000000
_cell_angle_beta   90.00000000
_cell_angle_gamma   90.00000000
_symmetry_Int_Tables_number   1
_chemical_formula_structural   HI
_chemical_formula_sum   'H8 I8'
_cell_volume   520.69244038
_cell_formula_units_Z   8
loop_
 _symmetry_equiv_pos_site_id
 _symmetry_equiv_pos_as_xyz
  1  'x, y, z'
loop_
 _atom_site_type_symbol
 _atom_site_label
 _atom_site_symmetry_multiplicity
 _atom_site_fract_x
 _atom_site_fract_y
 _atom_site_fract_z
 _atom_site_occupancy
  H  H0  1  0.20503000  0.33036000  0.59050000  1
  H  H1  1  0.79497000  0.83036000  0.90950000  1
  H  H2  1  0.70503000  0.16964000  0.40950000  1
  H  H3  1  0.29497000  0.66964000  0.09050000  1
  H  H4  1  0.56971000  0.52803000  0.84827000  1
  H  H5  1  0.43029000  0.02803000  0.65173000  1
  H  H6  1  0.06971000  0.97197000  0.15173000  1
  H  H7  1  0.93029000  0.47197000  0.34827000  1
  I  I8  1  0.23831000  0.04919000  0.74260000  1
  I  I9  1  0.76169000  0.54919000  0.75740000  1
  I  I10  1  0.73831000  0.45081000  0.25740000  1
  I  I11  1  0.26169000  0.95081000  0.24260000  1
  I  I12  1  0.29131000  0.47629000  0.00233000  1
  I  I13  1  0.70869000  0.97629000  0.49767000  1
  I  I14  1  0.79131000  0.02371000  0.99767000  1
  I  I15  1  0.20869000  0.52371000  0.50233000  1
