# generated using pymatgen
data_CsSiH6Au
_symmetry_space_group_name_H-M   'P 1'
_cell_length_a   4.76707403
_cell_length_b   5.09204341
_cell_length_c   6.66439612
_cell_angle_alpha   99.80090590
_cell_angle_beta   109.80466701
_cell_angle_gamma   90.92383208
_symmetry_Int_Tables_number   1
_chemical_formula_structural   CsSiH6Au
_chemical_formula_sum   'Cs1 Si1 H6 Au1'
_cell_volume   149.50691567
_cell_formula_units_Z   1
loop_
 _symmetry_equiv_pos_site_id
 _symmetry_equiv_pos_as_xyz
  1  'x, y, z'
loop_
 _atom_site_type_symbol
 _atom_site_label
 _atom_site_symmetry_multiplicity
 _atom_site_fract_x
 _atom_site_fract_y
 _atom_site_fract_z
 _atom_site_occupancy
  Cs  Cs0  1  0.32643084  0.31198989  0.67478690  1
  Si  Si1  1  0.55706210  0.74235203  0.29484008  1
  H  H2  1  0.80488949  0.74178489  0.74224560  1
  H  H3  1  0.30918837  0.73341872  0.38343652  1
  H  H4  1  0.43148895  0.71624904  0.05443490  1
  H  H5  1  0.12202519  0.24138037  0.15705757  1
  H  H6  1  0.75075951  0.51930703  0.35153243  1
  H  H7  1  0.73344756  0.00587391  0.38815553  1
  Au  Au8  1  0.96479700  0.98759404  0.95369691  1
