# generated using pymatgen
data_ScHO2
_symmetry_space_group_name_H-M   'P 1'
_cell_length_a   3.21872499
_cell_length_b   4.64327757
_cell_length_c   5.19134467
_cell_angle_alpha   90.00000000
_cell_angle_beta   90.00000000
_cell_angle_gamma   90.00000000
_symmetry_Int_Tables_number   1
_chemical_formula_structural   ScHO2
_chemical_formula_sum   'Sc2 H2 O4'
_cell_volume   77.58689680
_cell_formula_units_Z   2
loop_
 _symmetry_equiv_pos_site_id
 _symmetry_equiv_pos_as_xyz
  1  'x, y, z'
loop_
 _atom_site_type_symbol
 _atom_site_label
 _atom_site_symmetry_multiplicity
 _atom_site_fract_x
 _atom_site_fract_y
 _atom_site_fract_z
 _atom_site_occupancy
  Sc  Sc0  1  0.00000000  0.71886217  0.98326539  1
  Sc  Sc1  1  0.50000000  0.28113783  0.48326539  1
  H  H2  1  0.50000000  0.18202409  0.96175516  1
  H  H3  1  0.00000000  0.81797591  0.46175516  1
  O  O4  1  0.50000000  0.00857130  0.84422914  1
  O  O5  1  0.00000000  0.51041932  0.63352731  1
  O  O6  1  0.00000000  0.99142870  0.34422914  1
  O  O7  1  0.50000000  0.48958068  0.13352731  1
