# generated using pymatgen
data_RbNa2YF6
_symmetry_space_group_name_H-M   'P 1'
_cell_length_a   6.45982284
_cell_length_b   6.45982284
_cell_length_c   6.45982284
_cell_angle_alpha   56.20819453
_cell_angle_beta   56.20819453
_cell_angle_gamma   56.20819453
_symmetry_Int_Tables_number   1
_chemical_formula_structural   RbNa2YF6
_chemical_formula_sum   'Rb1 Na2 Y1 F6'
_cell_volume   173.88221432
_cell_formula_units_Z   1
loop_
 _symmetry_equiv_pos_site_id
 _symmetry_equiv_pos_as_xyz
  1  'x, y, z'
loop_
 _atom_site_type_symbol
 _atom_site_label
 _atom_site_symmetry_multiplicity
 _atom_site_fract_x
 _atom_site_fract_y
 _atom_site_fract_z
 _atom_site_occupancy
  Rb  Rb0  1  0.79672663  0.79672663  0.79672663  1
  Na  Na1  1  0.52432842  0.52432842  0.52432842  1
  Na  Na2  1  0.01358027  0.01358027  0.01358027  1
  Y  Y3  1  0.31834685  0.31834685  0.31834685  1
  F  F4  1  0.93551931  0.58519640  0.25629372  1
  F  F5  1  0.58519640  0.25629372  0.93551931  1
  F  F6  1  0.25629372  0.93551931  0.58519640  1
  F  F7  1  0.18612720  0.33902527  0.70637044  1
  F  F8  1  0.33902527  0.70637044  0.18612720  1
  F  F9  1  0.70637044  0.18612720  0.33902527  1
