# generated using pymatgen
data_KLiF2
_symmetry_space_group_name_H-M   'P 1'
_cell_length_a   5.43184780
_cell_length_b   5.43184780
_cell_length_c   5.43184780
_cell_angle_alpha   115.93665882
_cell_angle_beta   115.93665882
_cell_angle_gamma   97.19493315
_symmetry_Int_Tables_number   1
_chemical_formula_structural   KLiF2
_chemical_formula_sum   'K2 Li2 F4'
_cell_volume   119.26641300
_cell_formula_units_Z   2
loop_
 _symmetry_equiv_pos_site_id
 _symmetry_equiv_pos_as_xyz
  1  'x, y, z'
loop_
 _atom_site_type_symbol
 _atom_site_label
 _atom_site_symmetry_multiplicity
 _atom_site_fract_x
 _atom_site_fract_y
 _atom_site_fract_z
 _atom_site_occupancy
  K  K0  1  0.75000000  0.25000000  0.50000000  1
  K  K1  1  0.00000000  0.00000000  0.00000000  1
  Li  Li2  1  0.25000000  0.75000000  0.50000000  1
  Li  Li3  1  0.50000000  0.50000000  0.00000000  1
  F  F4  1  0.22471044  0.62500000  0.09971044  1
  F  F5  1  0.52528956  0.12500000  0.90028956  1
  F  F6  1  0.37500000  0.47471044  0.59971044  1
  F  F7  1  0.87500000  0.77528956  0.40028956  1
