# generated using pymatgen
data_RbLiF2
_symmetry_space_group_name_H-M   'P 1'
_cell_length_a   5.60301465
_cell_length_b   5.60301465
_cell_length_c   5.60301465
_cell_angle_alpha   116.13306319
_cell_angle_beta   116.13306319
_cell_angle_gamma   96.83931979
_symmetry_Int_Tables_number   1
_chemical_formula_structural   RbLiF2
_chemical_formula_sum   'Rb2 Li2 F4'
_cell_volume   130.64127382
_cell_formula_units_Z   2
loop_
 _symmetry_equiv_pos_site_id
 _symmetry_equiv_pos_as_xyz
  1  'x, y, z'
loop_
 _atom_site_type_symbol
 _atom_site_label
 _atom_site_symmetry_multiplicity
 _atom_site_fract_x
 _atom_site_fract_y
 _atom_site_fract_z
 _atom_site_occupancy
  Rb  Rb0  1  0.00000000  0.00000000  0.00000000  1
  Rb  Rb1  1  0.75000000  0.25000000  0.50000000  1
  Li  Li2  1  0.50000000  0.50000000  -0.00000000  1
  Li  Li3  1  0.25000000  0.75000000  0.50000000  1
  F  F4  1  0.37500000  0.75468692  0.87968692  1
  F  F5  1  0.87500000  0.49531308  0.12031308  1
  F  F6  1  0.24531308  0.12500000  0.62031308  1
  F  F7  1  0.50468692  0.62500000  0.37968692  1
