# generated using pymatgen
data_BaTeH
_symmetry_space_group_name_H-M   'P 1'
_cell_length_a   5.06899251
_cell_length_b   5.06899251
_cell_length_c   8.88290320
_cell_angle_alpha   74.54828151
_cell_angle_beta   74.54828151
_cell_angle_gamma   58.74399866
_symmetry_Int_Tables_number   1
_chemical_formula_structural   BaTeH
_chemical_formula_sum   'Ba2 Te2 H2'
_cell_volume   185.77334751
_cell_formula_units_Z   2
loop_
 _symmetry_equiv_pos_site_id
 _symmetry_equiv_pos_as_xyz
  1  'x, y, z'
loop_
 _atom_site_type_symbol
 _atom_site_label
 _atom_site_symmetry_multiplicity
 _atom_site_fract_x
 _atom_site_fract_y
 _atom_site_fract_z
 _atom_site_occupancy
  Ba  Ba0  1  0.51713519  0.51713519  0.37946448  1
  Ba  Ba1  1  0.01574417  0.01574417  0.87905839  1
  Te  Te2  1  0.75645947  0.75645947  0.63683880  1
  Te  Te3  1  0.27319871  0.27319871  0.11655840  1
  H  H4  1  0.07821606  0.07821606  0.50863663  1
  H  H5  1  0.14856639  0.14856639  0.43088330  1
