# generated using pymatgen
data_Li2SiSe3
_symmetry_space_group_name_H-M   'P 1'
_cell_length_a   7.13234101
_cell_length_b   7.13234101
_cell_length_c   6.40675436
_cell_angle_alpha   90.00000000
_cell_angle_beta   90.00000000
_cell_angle_gamma   119.53142803
_symmetry_Int_Tables_number   1
_chemical_formula_structural   Li2SiSe3
_chemical_formula_sum   'Li4 Si2 Se6'
_cell_volume   283.57254604
_cell_formula_units_Z   2
loop_
 _symmetry_equiv_pos_site_id
 _symmetry_equiv_pos_as_xyz
  1  'x, y, z'
loop_
 _atom_site_type_symbol
 _atom_site_label
 _atom_site_symmetry_multiplicity
 _atom_site_fract_x
 _atom_site_fract_y
 _atom_site_fract_z
 _atom_site_occupancy
  Li  Li0  1  0.81733817  0.48842042  0.55370330  1
  Li  Li1  1  0.51157958  0.18266183  0.05370330  1
  Li  Li2  1  0.48842042  0.81733817  0.55370330  1
  Li  Li3  1  0.18266183  0.51157958  0.05370330  1
  Si  Si4  1  0.83693212  0.83693212  0.03840839  1
  Si  Si5  1  0.16306788  0.16306788  0.53840839  1
  Se  Se6  1  0.84647315  0.53772056  0.94947322  1
  Se  Se7  1  0.46227944  0.15352685  0.44947322  1
  Se  Se8  1  0.53772056  0.84647315  0.94947322  1
  Se  Se9  1  0.15352685  0.46227944  0.44947322  1
  Se  Se10  1  0.85421176  0.85421176  0.41324756  1
  Se  Se11  1  0.14578824  0.14578824  0.91324756  1
