# generated using pymatgen
data_SrTeH
_symmetry_space_group_name_H-M   'P 1'
_cell_length_a   4.68798719
_cell_length_b   4.68814289
_cell_length_c   8.64708884
_cell_angle_alpha   74.28945762
_cell_angle_beta   74.27507479
_cell_angle_gamma   60.01486631
_symmetry_Int_Tables_number   1
_chemical_formula_structural   SrTeH
_chemical_formula_sum   'Sr2 Te2 H2'
_cell_volume   156.34686691
_cell_formula_units_Z   2
loop_
 _symmetry_equiv_pos_site_id
 _symmetry_equiv_pos_as_xyz
  1  'x, y, z'
loop_
 _atom_site_type_symbol
 _atom_site_label
 _atom_site_symmetry_multiplicity
 _atom_site_fract_x
 _atom_site_fract_y
 _atom_site_fract_z
 _atom_site_occupancy
  Sr  Sr0  1  0.73079683  0.51159252  0.65288292  1
  Sr  Sr1  1  0.56193007  0.34215025  0.16062612  1
  Te  Te2  1  0.14439142  0.92467992  0.41307550  1
  Te  Te3  1  0.31564875  0.09655533  0.89815428  1
  H  H4  1  0.88365598  0.66427653  0.19479482  1
  H  H5  1  0.91542841  0.69524870  0.10031907  1
