# generated using pymatgen
data_AlSBr
_symmetry_space_group_name_H-M   'P 1'
_cell_length_a   6.07132619
_cell_length_b   6.58338915
_cell_length_c   9.19988225
_cell_angle_alpha   90.00000000
_cell_angle_beta   90.00000000
_cell_angle_gamma   90.00000000
_symmetry_Int_Tables_number   1
_chemical_formula_structural   AlSBr
_chemical_formula_sum   'Al4 S4 Br4'
_cell_volume   367.71840083
_cell_formula_units_Z   4
loop_
 _symmetry_equiv_pos_site_id
 _symmetry_equiv_pos_as_xyz
  1  'x, y, z'
loop_
 _atom_site_type_symbol
 _atom_site_label
 _atom_site_symmetry_multiplicity
 _atom_site_fract_x
 _atom_site_fract_y
 _atom_site_fract_z
 _atom_site_occupancy
  Al  Al0  1  0.00139949  0.08349564  0.11074959  1
  Al  Al1  1  0.50139949  0.91650436  0.88925041  1
  Al  Al2  1  0.00139949  0.58349564  0.88925041  1
  Al  Al3  1  0.50139949  0.41650436  0.11074959  1
  S  S4  1  0.12176858  0.41470531  0.09328950  1
  S  S5  1  0.62176858  0.58529469  0.90671050  1
  S  S6  1  0.12176858  0.91470531  0.90671050  1
  S  S7  1  0.62176858  0.08529469  0.09328950  1
  Br  Br8  1  0.10583293  0.96251361  0.32964595  1
  Br  Br9  1  0.60583293  0.03748639  0.67035405  1
  Br  Br10  1  0.10583293  0.46251361  0.67035405  1
  Br  Br11  1  0.60583293  0.53748639  0.32964595  1
