# generated using pymatgen
data_NbO2F
_symmetry_space_group_name_H-M   'P 1'
_cell_length_a   5.42163013
_cell_length_b   5.42163013
_cell_length_c   5.58512896
_cell_angle_alpha   92.29243506
_cell_angle_beta   117.86992876
_cell_angle_gamma   118.50468999
_symmetry_Int_Tables_number   1
_chemical_formula_structural   NbO2F
_chemical_formula_sum   'Nb2 O4 F2'
_cell_volume   119.99888321
_cell_formula_units_Z   2
loop_
 _symmetry_equiv_pos_site_id
 _symmetry_equiv_pos_as_xyz
  1  'x, y, z'
loop_
 _atom_site_type_symbol
 _atom_site_label
 _atom_site_symmetry_multiplicity
 _atom_site_fract_x
 _atom_site_fract_y
 _atom_site_fract_z
 _atom_site_occupancy
  Nb  Nb2  1  0.45286600  0.24711100  0.14351500  1.0
  Nb  Nb3  1  0.39640400  0.69064900  0.64351500  1.0
  O  O4  1  0.37431100  0.39610700  0.41365500  1.0
  O  O5  1  0.93571100  0.55051100  0.39881400  1.0
  O  O6  1  0.51754800  0.03934400  0.91365500  1.0
  O  O7  1  0.34830300  0.46310300  0.89881400  1.0
  F  F0  1  0.51953600  0.96747900  0.40766400  1.0
  F  F1  1  0.94018500  0.88812800  0.90766400  1.0
