# generated using pymatgen
data_NaLi3F4
_symmetry_space_group_name_H-M   'P 1'
_cell_length_a   5.07845943
_cell_length_b   5.66665226
_cell_length_c   6.59681836
_cell_angle_alpha   90.00000000
_cell_angle_beta   90.00000000
_cell_angle_gamma   90.00000000
_symmetry_Int_Tables_number   1
_chemical_formula_structural   NaLi3F4
_chemical_formula_sum   'Na2 Li6 F8'
_cell_volume   189.84233900
_cell_formula_units_Z   2
loop_
 _symmetry_equiv_pos_site_id
 _symmetry_equiv_pos_as_xyz
  1  'x, y, z'
loop_
 _atom_site_type_symbol
 _atom_site_label
 _atom_site_symmetry_multiplicity
 _atom_site_fract_x
 _atom_site_fract_y
 _atom_site_fract_z
 _atom_site_occupancy
  Na  Na0  1  0.01931153  0.16288061  0.00000000  1
  Na  Na1  1  0.51931153  0.83711939  0.50000000  1
  Li  Li2  1  0.50538808  0.81485775  0.00000000  1
  Li  Li3  1  0.00749169  0.66074450  0.25182895  1
  Li  Li4  1  0.50749169  0.33925550  0.24817105  1
  Li  Li5  1  0.00538808  0.18514225  0.50000000  1
  Li  Li6  1  0.50749169  0.33925550  0.75182895  1
  Li  Li7  1  0.00749169  0.66074450  0.74817105  1
  F  F8  1  0.13265423  0.78841492  0.00000000  1
  F  F9  1  0.57030455  0.15368088  0.00000000  1
  F  F10  1  0.13631212  0.34948820  0.27511364  1
  F  F11  1  0.63631212  0.65051180  0.22488636  1
  F  F12  1  0.07030455  0.84631912  0.50000000  1
  F  F13  1  0.63265423  0.21158508  0.50000000  1
  F  F14  1  0.63631212  0.65051180  0.77511364  1
  F  F15  1  0.13631212  0.34948820  0.72488636  1
