# generated using pymatgen
data_MgZrO3
_symmetry_space_group_name_H-M   'P 1'
_cell_length_a   5.34795451
_cell_length_b   5.34795451
_cell_length_c   5.71310199
_cell_angle_alpha   62.09000514
_cell_angle_beta   62.09000514
_cell_angle_gamma   60.01182140
_symmetry_Int_Tables_number   1
_chemical_formula_structural   MgZrO3
_chemical_formula_sum   'Mg2 Zr2 O6'
_cell_volume   119.06763454
_cell_formula_units_Z   2
loop_
 _symmetry_equiv_pos_site_id
 _symmetry_equiv_pos_as_xyz
  1  'x, y, z'
loop_
 _atom_site_type_symbol
 _atom_site_label
 _atom_site_symmetry_multiplicity
 _atom_site_fract_x
 _atom_site_fract_y
 _atom_site_fract_z
 _atom_site_occupancy
  Mg  Mg0  1  0.79967112  0.29959544  0.10055988  1
  Mg  Mg1  1  0.29959544  0.79967112  0.60055988  1
  Zr  Zr2  1  0.51175212  0.01174528  0.96408415  1
  Zr  Zr3  1  0.01174528  0.51175212  0.46408415  1
  O  O4  1  0.40372804  0.60473466  0.28282926  1
  O  O5  1  0.70830818  0.90355508  0.28260195  1
  O  O6  1  0.10490283  0.20815025  0.28273776  1
  O  O7  1  0.20815025  0.10490283  0.78273776  1
  O  O8  1  0.60473466  0.40372804  0.78282926  1
  O  O9  1  0.90355508  0.70830818  0.78260195  1
