# generated using pymatgen
data_NaLiF2
_symmetry_space_group_name_H-M   'P 1'
_cell_length_a   4.59225950
_cell_length_b   4.60877411
_cell_length_c   8.43306449
_cell_angle_alpha   90.00000000
_cell_angle_beta   90.00000000
_cell_angle_gamma   90.00000000
_symmetry_Int_Tables_number   1
_chemical_formula_structural   NaLiF2
_chemical_formula_sum   'Na4 Li4 F8'
_cell_volume   178.48316777
_cell_formula_units_Z   4
loop_
 _symmetry_equiv_pos_site_id
 _symmetry_equiv_pos_as_xyz
  1  'x, y, z'
loop_
 _atom_site_type_symbol
 _atom_site_label
 _atom_site_symmetry_multiplicity
 _atom_site_fract_x
 _atom_site_fract_y
 _atom_site_fract_z
 _atom_site_occupancy
  Na  Na0  1  0.94702565  0.49694147  0.37491047  1
  Na  Na1  1  0.44702565  0.50305853  0.62508953  1
  Na  Na2  1  0.44702565  0.00305853  0.87491047  1
  Na  Na3  1  0.94702565  0.99694147  0.12508953  1
  Li  Li4  1  0.97733449  0.53548320  0.87474165  1
  Li  Li5  1  0.47733449  0.96451680  0.37474165  1
  Li  Li6  1  0.97733449  0.03548320  0.62525835  1
  Li  Li7  1  0.47733449  0.46451680  0.12525835  1
  F  F8  1  0.44120763  0.03847463  0.14617110  1
  F  F9  1  0.44120763  0.53847463  0.35382890  1
  F  F10  1  0.94120763  0.96152537  0.85382890  1
  F  F11  1  0.94120763  0.46152537  0.64617110  1
  F  F12  1  0.90748623  0.49654681  0.10395068  1
  F  F13  1  0.40748623  0.50345319  0.89604932  1
  F  F14  1  0.40748623  0.00345319  0.60395068  1
  F  F15  1  0.90748623  0.99654681  0.39604932  1
