# generated using pymatgen
data_Ca2MgBi2
_symmetry_space_group_name_H-M   'P 1'
_cell_length_a   9.22913347
_cell_length_b   9.22913347
_cell_length_c   7.48106072
_cell_angle_alpha   90.00000000
_cell_angle_beta   90.00000000
_cell_angle_gamma   149.89750698
_symmetry_Int_Tables_number   1
_chemical_formula_structural   Ca2MgBi2
_chemical_formula_sum   'Ca4 Mg2 Bi4'
_cell_volume   319.59344712
_cell_formula_units_Z   2
loop_
 _symmetry_equiv_pos_site_id
 _symmetry_equiv_pos_as_xyz
  1  'x, y, z'
loop_
 _atom_site_type_symbol
 _atom_site_label
 _atom_site_symmetry_multiplicity
 _atom_site_fract_x
 _atom_site_fract_y
 _atom_site_fract_z
 _atom_site_occupancy
  Ca  Ca0  1  0.97837276  0.02162724  0.26290706  1
  Ca  Ca1  1  0.80202690  0.19797311  0.58263701  1
  Ca  Ca2  1  0.19797311  0.80202690  0.08263701  1
  Ca  Ca3  1  0.02162724  0.97837276  0.76290706  1
  Mg  Mg4  1  0.40086915  0.59913085  0.93537349  1
  Mg  Mg5  1  0.59913085  0.40086915  0.43537349  1
  Bi  Bi6  1  0.43199263  0.56800737  0.54116985  1
  Bi  Bi7  1  0.82147196  0.17852804  0.04355194  1
  Bi  Bi8  1  0.17852804  0.82147196  0.54355194  1
  Bi  Bi9  1  0.56800737  0.43199263  0.04116985  1
