# generated using pymatgen
data_Ga4SnSe7
_symmetry_space_group_name_H-M   'P 1'
_cell_length_a   6.38866551
_cell_length_b   6.76731896
_cell_length_c   15.64163354
_cell_angle_alpha   90.00000000
_cell_angle_beta   90.00000000
_cell_angle_gamma   90.00000000
_symmetry_Int_Tables_number   1
_chemical_formula_structural   Ga4SnSe7
_chemical_formula_sum   'Ga8 Sn2 Se14'
_cell_volume   676.25253105
_cell_formula_units_Z   2
loop_
 _symmetry_equiv_pos_site_id
 _symmetry_equiv_pos_as_xyz
  1  'x, y, z'
loop_
 _atom_site_type_symbol
 _atom_site_label
 _atom_site_symmetry_multiplicity
 _atom_site_fract_x
 _atom_site_fract_y
 _atom_site_fract_z
 _atom_site_occupancy
  Ga  Ga0  1  0.58446309  0.65961893  0.87552007  1
  Ga  Ga1  1  0.07749952  0.82129267  0.25364594  1
  Ga  Ga2  1  0.57749952  0.17870733  0.24635406  1
  Ga  Ga3  1  0.08446309  0.34038107  0.62447993  1
  Ga  Ga4  1  0.08446309  0.34038107  0.37552007  1
  Ga  Ga5  1  0.58446309  0.65961893  0.12447993  1
  Ga  Ga6  1  0.07749952  0.82129267  0.74635406  1
  Ga  Ga7  1  0.57749952  0.17870733  0.75364594  1
  Sn  Sn8  1  0.54403711  0.03878057  0.50000000  1
  Sn  Sn9  1  0.04403711  0.96121943  0.00000000  1
  Se  Se10  1  0.97345895  0.66157179  0.11909982  1
  Se  Se11  1  0.47345895  0.33842821  0.38090018  1
  Se  Se12  1  0.45804533  0.32843512  0.88205829  1
  Se  Se13  1  0.95804533  0.67156488  0.61794171  1
  Se  Se14  1  0.95804533  0.67156488  0.38205829  1
  Se  Se15  1  0.45804533  0.32843512  0.11794171  1
  Se  Se16  1  0.46903412  0.82784149  0.74229972  1
  Se  Se17  1  0.96903412  0.17215851  0.75770028  1
  Se  Se18  1  0.96903412  0.17215851  0.24229972  1
  Se  Se19  1  0.46903412  0.82784149  0.25770028  1
  Se  Se20  1  0.48579089  0.86252240  0.00000000  1
  Se  Se21  1  0.98579089  0.13747760  0.50000000  1
  Se  Se22  1  0.97345895  0.66157179  0.88090018  1
  Se  Se23  1  0.47345895  0.33842821  0.61909982  1
