# generated using pymatgen
data_BeAlSiN3
_symmetry_space_group_name_H-M   'P 1'
_cell_length_a   5.14681784
_cell_length_b   5.14681784
_cell_length_c   5.63305972
_cell_angle_alpha   62.94658872
_cell_angle_beta   62.94658872
_cell_angle_gamma   59.98851049
_symmetry_Int_Tables_number   1
_chemical_formula_structural   BeAlSiN3
_chemical_formula_sum   'Be2 Al2 Si2 N6'
_cell_volume   109.96039869
_cell_formula_units_Z   2
loop_
 _symmetry_equiv_pos_site_id
 _symmetry_equiv_pos_as_xyz
  1  'x, y, z'
loop_
 _atom_site_type_symbol
 _atom_site_label
 _atom_site_symmetry_multiplicity
 _atom_site_fract_x
 _atom_site_fract_y
 _atom_site_fract_z
 _atom_site_occupancy
  Be  Be0  1  0.16969900  0.33780400  0.49327200  1
  Be  Be1  1  0.33780400  0.16969900  0.99327200  1
  Al  Al2  1  0.49675300  0.66375900  0.50775400  1
  Al  Al3  1  0.66375900  0.49675300  0.00775400  1
  Si  Si4  1  0.82818700  0.99744000  0.50877600  1
  Si  Si5  1  0.99744000  0.82818700  0.00877600  1
  N  N6  1  0.27746700  0.46323600  0.11434600  1
  N  N7  1  0.97171400  0.10341000  0.13465900  1
  N  N8  1  0.62876300  0.81176100  0.11619300  1
  N  N9  1  0.10341000  0.97171400  0.63465900  1
  N  N10  1  0.81176100  0.62876300  0.61619300  1
  N  N11  1  0.46323600  0.27746700  0.61434600  1
