# generated using pymatgen
data_BH3S
_symmetry_space_group_name_H-M   'P 1'
_cell_length_a   3.06452742
_cell_length_b   5.00742860
_cell_length_c   7.84356331
_cell_angle_alpha   90.19642002
_cell_angle_beta   90.02708846
_cell_angle_gamma   90.01806823
_symmetry_Int_Tables_number   1
_chemical_formula_structural   BH3S
_chemical_formula_sum   'B2 H6 S2'
_cell_volume   120.36190735
_cell_formula_units_Z   2
loop_
 _symmetry_equiv_pos_site_id
 _symmetry_equiv_pos_as_xyz
  1  'x, y, z'
loop_
 _atom_site_type_symbol
 _atom_site_label
 _atom_site_symmetry_multiplicity
 _atom_site_fract_x
 _atom_site_fract_y
 _atom_site_fract_z
 _atom_site_occupancy
  B  B0  1  0.67775688  0.00452506  0.27486912  1
  B  B1  1  0.67498801  0.50194369  0.82364466  1
  H  H2  1  0.17534083  0.88988687  0.90121663  1
  H  H3  1  0.67509727  0.44012312  0.97217921  1
  H  H4  1  0.67772703  0.82340627  0.37572250  1
  H  H5  1  0.17771660  0.39159982  0.19702597  1
  H  H6  1  0.67761060  0.94080578  0.12641208  1
  H  H7  1  0.67471445  0.31951007  0.72293693  1
  S  S8  1  0.17790400  0.22385355  0.33255355  1
  S  S9  1  0.17503033  0.72059176  0.76573036  1
