# generated using pymatgen
data_H2BrF
_symmetry_space_group_name_H-M   'P 1'
_cell_length_a   4.83694702
_cell_length_b   4.87089687
_cell_length_c   6.82217524
_cell_angle_alpha   92.48017327
_cell_angle_beta   94.47142641
_cell_angle_gamma   93.97789250
_symmetry_Int_Tables_number   1
_chemical_formula_structural   H2BrF
_chemical_formula_sum   'H4 Br2 F2'
_cell_volume   159.66541309
_cell_formula_units_Z   2
loop_
 _symmetry_equiv_pos_site_id
 _symmetry_equiv_pos_as_xyz
  1  'x, y, z'
loop_
 _atom_site_type_symbol
 _atom_site_label
 _atom_site_symmetry_multiplicity
 _atom_site_fract_x
 _atom_site_fract_y
 _atom_site_fract_z
 _atom_site_occupancy
  H  H0  1  0.84245208  0.86731604  0.93329571  1
  H  H1  1  0.29749142  0.95560940  0.94995753  1
  H  H2  1  0.04903472  0.53431474  0.38320729  1
  H  H3  1  0.96575960  0.97609587  0.40209845  1
  Br  Br4  1  0.60096281  0.66510059  0.92076481  1
  Br  Br5  1  0.77916880  0.19398434  0.44241891  1
  F  F6  1  0.14464714  0.07551617  0.95455542  1
  F  F7  1  0.16015644  0.70443084  0.36354387  1
