# generated using pymatgen
data_BH3Se
_symmetry_space_group_name_H-M   'P 1'
_cell_length_a   3.28228298
_cell_length_b   4.66618295
_cell_length_c   8.89390867
_cell_angle_alpha   89.99369225
_cell_angle_beta   89.99865468
_cell_angle_gamma   89.98848654
_symmetry_Int_Tables_number   1
_chemical_formula_structural   BH3Se
_chemical_formula_sum   'B2 H6 Se2'
_cell_volume   136.21672598
_cell_formula_units_Z   2
loop_
 _symmetry_equiv_pos_site_id
 _symmetry_equiv_pos_as_xyz
  1  'x, y, z'
loop_
 _atom_site_type_symbol
 _atom_site_label
 _atom_site_symmetry_multiplicity
 _atom_site_fract_x
 _atom_site_fract_y
 _atom_site_fract_z
 _atom_site_occupancy
  B  B0  1  0.95051235  0.45783414  0.12792279  1
  B  B1  1  0.95119189  0.18932690  0.62780481  1
  H  H2  1  0.95094650  0.44674486  0.62326067  1
  H  H3  1  0.95102422  0.06087595  0.51005245  1
  H  H4  1  0.45102976  0.25161881  0.86914305  1
  H  H5  1  0.95036801  0.20041624  0.12353856  1
  H  H6  1  0.95073160  0.58621020  0.01014355  1
  H  H7  1  0.45024177  0.39583164  0.36926323  1
  Se  Se8  1  0.45040991  0.61451944  0.24756042  1
  Se  Se9  1  0.45125400  0.03273684  0.74755745  1
