# generated using pymatgen
data_H4SeI2
_symmetry_space_group_name_H-M   'P 1'
_cell_length_a   6.41549687
_cell_length_b   6.41549687
_cell_length_c   6.59293680
_cell_angle_alpha   60.86322081
_cell_angle_beta   60.86322081
_cell_angle_gamma   79.10001367
_symmetry_Int_Tables_number   1
_chemical_formula_structural   H4SeI2
_chemical_formula_sum   'H4 Se1 I2'
_cell_volume   206.61656856
_cell_formula_units_Z   1
loop_
 _symmetry_equiv_pos_site_id
 _symmetry_equiv_pos_as_xyz
  1  'x, y, z'
loop_
 _atom_site_type_symbol
 _atom_site_label
 _atom_site_symmetry_multiplicity
 _atom_site_fract_x
 _atom_site_fract_y
 _atom_site_fract_z
 _atom_site_occupancy
  H  H0  1  0.44376032  0.44376032  0.62956508  1
  H  H1  1  0.77380279  0.77380279  0.27342802  1
  H  H2  1  0.82812739  0.09133149  0.90640965  1
  H  H3  1  0.09133149  0.82812739  0.90640965  1
  Se  Se4  1  0.96828474  0.96828474  0.07103589  1
  I  I5  1  0.68161404  0.21307922  0.60657585  1
  I  I6  1  0.21307922  0.68161404  0.60657585  1
