# generated using pymatgen
data_LiSc2NbO6
_symmetry_space_group_name_H-M   'P 1'
_cell_length_a   5.33384088
_cell_length_b   5.33389449
_cell_length_c   5.73957466
_cell_angle_alpha   90.00476332
_cell_angle_beta   117.68399009
_cell_angle_gamma   119.99714999
_symmetry_Int_Tables_number   1
_chemical_formula_structural   LiSc2NbO6
_chemical_formula_sum   'Li1 Sc2 Nb1 O6'
_cell_volume   119.34338616
_cell_formula_units_Z   1
loop_
 _symmetry_equiv_pos_site_id
 _symmetry_equiv_pos_as_xyz
  1  'x, y, z'
loop_
 _atom_site_type_symbol
 _atom_site_label
 _atom_site_symmetry_multiplicity
 _atom_site_fract_x
 _atom_site_fract_y
 _atom_site_fract_z
 _atom_site_occupancy
  Li  Li0  1  0.57631217  0.78826238  0.36459974  1
  Sc  Sc1  1  0.03475428  0.51739741  0.55212592  1
  Sc  Sc2  1  0.04463710  0.02228519  0.06694795  1
  Nb  Nb3  1  0.62827078  0.31411750  0.94245708  1
  O  O4  1  0.17743731  0.24037083  0.77256718  1
  O  O5  1  0.53225092  0.93704030  0.77252327  1
  O  O6  1  0.83552911  0.59513244  0.77259541  1
  O  O7  1  0.84794883  0.71214660  0.24700718  1
  O  O8  1  0.53486339  0.13579768  0.24697778  1
  O  O9  1  0.11119811  0.39905067  0.24699749  1
