# generated using pymatgen
data_LiTaO3
_symmetry_space_group_name_H-M   'P 1'
_cell_length_a   6.04945524
_cell_length_b   6.04945524
_cell_length_c   6.04945524
_cell_angle_alpha   90.00000000
_cell_angle_beta   90.00000000
_cell_angle_gamma   90.00000000
_symmetry_Int_Tables_number   1
_chemical_formula_structural   LiTaO3
_chemical_formula_sum   'Li4 Ta4 O12'
_cell_volume   221.38531165
_cell_formula_units_Z   4
loop_
 _symmetry_equiv_pos_site_id
 _symmetry_equiv_pos_as_xyz
  1  'x, y, z'
loop_
 _atom_site_type_symbol
 _atom_site_label
 _atom_site_symmetry_multiplicity
 _atom_site_fract_x
 _atom_site_fract_y
 _atom_site_fract_z
 _atom_site_occupancy
  Li  Li0  1  0.87466841  0.87466841  0.87466841  1
  Li  Li1  1  0.62533159  0.12533159  0.37466841  1
  Li  Li2  1  0.37466841  0.62533159  0.12533159  1
  Li  Li3  1  0.12533159  0.37466841  0.62533159  1
  Ta  Ta4  1  0.08429080  0.91570920  0.41570920  1
  Ta  Ta5  1  0.41570920  0.08429080  0.91570920  1
  Ta  Ta6  1  0.58429080  0.58429080  0.58429080  1
  Ta  Ta7  1  0.91570920  0.41570920  0.08429080  1
  O  O8  1  0.99314902  0.21913210  0.34913115  1
  O  O9  1  0.15086885  0.00685098  0.71913210  1
  O  O10  1  0.21913210  0.34913115  0.99314902  1
  O  O11  1  0.28086790  0.65086885  0.49314902  1
  O  O12  1  0.34913115  0.99314902  0.21913210  1
  O  O13  1  0.50685098  0.78086790  0.84913115  1
  O  O14  1  0.49314902  0.28086790  0.65086885  1
  O  O15  1  0.65086885  0.49314902  0.28086790  1
  O  O16  1  0.71913210  0.15086885  0.00685098  1
  O  O17  1  0.78086790  0.84913115  0.50685098  1
  O  O18  1  0.84913115  0.50685098  0.78086790  1
  O  O19  1  0.00685098  0.71913210  0.15086885  1
