# generated using pymatgen
data_Li2HfTeO6
_symmetry_space_group_name_H-M   'P 1'
_cell_length_a   5.53182302
_cell_length_b   5.53182302
_cell_length_c   5.53182302
_cell_angle_alpha   56.29375158
_cell_angle_beta   56.29375158
_cell_angle_gamma   56.29375158
_symmetry_Int_Tables_number   1
_chemical_formula_structural   Li2HfTeO6
_chemical_formula_sum   'Li2 Hf1 Te1 O6'
_cell_volume   109.43494005
_cell_formula_units_Z   1
loop_
 _symmetry_equiv_pos_site_id
 _symmetry_equiv_pos_as_xyz
  1  'x, y, z'
loop_
 _atom_site_type_symbol
 _atom_site_label
 _atom_site_symmetry_multiplicity
 _atom_site_fract_x
 _atom_site_fract_y
 _atom_site_fract_z
 _atom_site_occupancy
  Li  Li0  1  0.72261782  0.72261782  0.72261782  1
  Li  Li1  1  0.21472411  0.21472411  0.21472411  1
  Hf  Hf2  1  0.00012837  0.00012837  0.00012837  1
  Te  Te3  1  0.50369588  0.50369588  0.50369588  1
  O  O4  1  0.75978347  0.13923300  0.38770093  1
  O  O5  1  0.61637427  0.28107315  0.87266903  1
  O  O6  1  0.28107315  0.87266903  0.61637427  1
  O  O7  1  0.87266903  0.61637427  0.28107315  1
  O  O8  1  0.38770093  0.75978347  0.13923300  1
  O  O9  1  0.13923300  0.38770093  0.75978347  1
