# generated using pymatgen
data_TlH2Cl
_symmetry_space_group_name_H-M   'P 1'
_cell_length_a   4.56139136
_cell_length_b   4.56139136
_cell_length_c   4.32560272
_cell_angle_alpha   78.74573645
_cell_angle_beta   78.74573645
_cell_angle_gamma   74.32652969
_symmetry_Int_Tables_number   1
_chemical_formula_structural   TlH2Cl
_chemical_formula_sum   'Tl1 H2 Cl1'
_cell_volume   84.01459581
_cell_formula_units_Z   1
loop_
 _symmetry_equiv_pos_site_id
 _symmetry_equiv_pos_as_xyz
  1  'x, y, z'
loop_
 _atom_site_type_symbol
 _atom_site_label
 _atom_site_symmetry_multiplicity
 _atom_site_fract_x
 _atom_site_fract_y
 _atom_site_fract_z
 _atom_site_occupancy
  Tl  Tl0  1  0.51979276  0.51979276  0.53682097  1
  H  H1  1  0.92774172  0.92774172  0.91067939  1
  H  H2  1  0.84132245  0.84132245  0.84321215  1
  Cl  Cl3  1  0.21114106  0.21114106  0.20928649  1
