# generated using pymatgen
data_BeSO4
_symmetry_space_group_name_H-M   'P 1'
_cell_length_a   4.48500022
_cell_length_b   4.68616191
_cell_length_c   4.48500022
_cell_angle_alpha   118.58987030
_cell_angle_beta   90.00000000
_cell_angle_gamma   118.58987030
_symmetry_Int_Tables_number   1
_chemical_formula_structural   BeSO4
_chemical_formula_sum   'Be1 S1 O4'
_cell_volume   69.39753296
_cell_formula_units_Z   1
loop_
 _symmetry_equiv_pos_site_id
 _symmetry_equiv_pos_as_xyz
  1  'x, y, z'
loop_
 _atom_site_type_symbol
 _atom_site_label
 _atom_site_symmetry_multiplicity
 _atom_site_fract_x
 _atom_site_fract_y
 _atom_site_fract_z
 _atom_site_occupancy
  Be  Be0  1  0.75000000  0.50000000  0.25000000  1.0
  S  S5  1  0.00000000  0.00000000  0.00000000  1.0
  O  O1  1  0.89000000  0.26000000  0.99000000  1.0
  O  O2  1  0.01000000  0.74000000  0.63000000  1.0
  O  O3  1  0.73000000  0.74000000  0.11000000  1.0
  O  O4  1  0.37000000  0.26000000  0.27000000  1.0
