# generated using pymatgen
data_Li2BeCl4
_symmetry_space_group_name_H-M   'P 1'
_cell_length_a   6.27947575
_cell_length_b   6.27947575
_cell_length_c   6.27947575
_cell_angle_alpha   125.61239503
_cell_angle_beta   125.61239503
_cell_angle_gamma   80.52613423
_symmetry_Int_Tables_number   1
_chemical_formula_structural   Li2BeCl4
_chemical_formula_sum   'Li2 Be1 Cl4'
_cell_volume   157.84789326
_cell_formula_units_Z   1
loop_
 _symmetry_equiv_pos_site_id
 _symmetry_equiv_pos_as_xyz
  1  'x, y, z'
loop_
 _atom_site_type_symbol
 _atom_site_label
 _atom_site_symmetry_multiplicity
 _atom_site_fract_x
 _atom_site_fract_y
 _atom_site_fract_z
 _atom_site_occupancy
  Li  Li0  1  0.75000000  0.25000000  0.50000000  1
  Li  Li1  1  0.25000000  0.75000000  0.50000000  1
  Be  Be2  1  0.50000000  0.50000000  -0.00000000  1
  Cl  Cl3  1  0.82711472  0.82711472  0.41648756  1
  Cl  Cl4  1  0.41062716  0.41062716  0.58351244  1
  Cl  Cl5  1  0.58937284  0.17288528  1.00000000  1
  Cl  Cl6  1  0.17288528  0.58937284  0.00000000  1
