# generated using pymatgen
data_LiHBr
_symmetry_space_group_name_H-M   'P 1'
_cell_length_a   4.29583871
_cell_length_b   4.29583871
_cell_length_c   9.03831087
_cell_angle_alpha   72.73085897
_cell_angle_beta   72.73085897
_cell_angle_gamma   60.58383929
_symmetry_Int_Tables_number   1
_chemical_formula_structural   LiHBr
_chemical_formula_sum   'Li2 H2 Br2'
_cell_volume   136.43449848
_cell_formula_units_Z   2
loop_
 _symmetry_equiv_pos_site_id
 _symmetry_equiv_pos_as_xyz
  1  'x, y, z'
loop_
 _atom_site_type_symbol
 _atom_site_label
 _atom_site_symmetry_multiplicity
 _atom_site_fract_x
 _atom_site_fract_y
 _atom_site_fract_z
 _atom_site_occupancy
  Li  Li0  1  0.82847868  0.82847868  0.11914748  1
  Li  Li1  1  0.27128096  0.27128096  0.86282831  1
  H  H2  1  0.35181834  0.52541428  0.50200920  1
  H  H3  1  0.52541428  0.35181834  0.50200920  1
  Br  Br4  1  0.14110469  0.14110469  0.17343629  1
  Br  Br5  1  0.95793305  0.95793305  0.81066953  1
