# generated using pymatgen
data_SiI3Br
_symmetry_space_group_name_H-M   'P 1'
_cell_length_a   7.15412247
_cell_length_b   7.33604559
_cell_length_c   10.50436962
_cell_angle_alpha   90.10789691
_cell_angle_beta   90.01158520
_cell_angle_gamma   90.04055044
_symmetry_Int_Tables_number   1
_chemical_formula_structural   SiI3Br
_chemical_formula_sum   'Si2 I6 Br2'
_cell_volume   551.29937332
_cell_formula_units_Z   2
loop_
 _symmetry_equiv_pos_site_id
 _symmetry_equiv_pos_as_xyz
  1  'x, y, z'
loop_
 _atom_site_type_symbol
 _atom_site_label
 _atom_site_symmetry_multiplicity
 _atom_site_fract_x
 _atom_site_fract_y
 _atom_site_fract_z
 _atom_site_occupancy
  Si  Si0  1  0.14933656  0.72387583  0.29954492  1
  Si  Si1  1  0.49790280  0.22360554  0.79891469  1
  I  I2  1  0.55799213  0.55312139  0.80050458  1
  I  I3  1  0.01002029  0.58252405  0.11002151  1
  I  I4  1  0.63454460  0.08632973  0.60726366  1
  I  I5  1  0.08945494  0.05334478  0.29752663  1
  I  I6  1  0.63588681  0.08410270  0.98910421  1
  I  I7  1  0.01376722  0.58842434  0.49191437  1
  Br  Br8  1  0.45635675  0.67442206  0.29835419  1
  Br  Br9  1  0.19085190  0.17400259  0.79914126  1
