# generated using pymatgen
data_Rb2BH6Au
_symmetry_space_group_name_H-M   'P 1'
_cell_length_a   5.86581278
_cell_length_b   5.86907595
_cell_length_c   6.37935175
_cell_angle_alpha   117.27631848
_cell_angle_beta   117.25954572
_cell_angle_gamma   90.00737759
_symmetry_Int_Tables_number   1
_chemical_formula_structural   Rb2BH6Au
_chemical_formula_sum   'Rb2 B1 H6 Au1'
_cell_volume   167.27866871
_cell_formula_units_Z   1
loop_
 _symmetry_equiv_pos_site_id
 _symmetry_equiv_pos_as_xyz
  1  'x, y, z'
loop_
 _atom_site_type_symbol
 _atom_site_label
 _atom_site_symmetry_multiplicity
 _atom_site_fract_x
 _atom_site_fract_y
 _atom_site_fract_z
 _atom_site_occupancy
  Rb  Rb0  1  0.24987453  0.74988454  0.49953257  1
  Rb  Rb1  1  0.75017597  0.25014501  0.50010123  1
  B  B2  1  0.49979102  0.49977335  0.00009879  1
  H  H3  1  0.17136234  0.17143831  0.34086206  1
  H  H4  1  0.45175368  0.45169469  0.14680419  1
  H  H5  1  0.30482660  0.54899709  0.85567865  1
  H  H6  1  0.54888908  0.30484464  0.85548449  1
  H  H7  1  0.69374193  0.69361025  0.14248243  1
  H  H8  1  0.82929698  0.82929133  0.65902599  1
  Au  Au9  1  0.00028490  0.00031779  0.99992361  1
