# generated using pymatgen
data_Ba2Pb
_symmetry_space_group_name_H-M   'P 1'
_cell_length_a   9.37543031
_cell_length_b   9.37543031
_cell_length_c   5.46779078
_cell_angle_alpha   90.00000000
_cell_angle_beta   90.00000000
_cell_angle_gamma   120.00000000
_symmetry_Int_Tables_number   1
_chemical_formula_structural   Ba2Pb
_chemical_formula_sum   'Ba6 Pb3'
_cell_volume   416.22191190
_cell_formula_units_Z   3
loop_
 _symmetry_equiv_pos_site_id
 _symmetry_equiv_pos_as_xyz
  1  'x, y, z'
loop_
 _atom_site_type_symbol
 _atom_site_label
 _atom_site_symmetry_multiplicity
 _atom_site_fract_x
 _atom_site_fract_y
 _atom_site_fract_z
 _atom_site_occupancy
  Ba  Ba0  1  0.25829807  0.00000000  0.00000000  1
  Ba  Ba1  1  0.00000000  0.25829807  0.00000000  1
  Ba  Ba2  1  0.74170194  0.74170194  0.00000000  1
  Ba  Ba3  1  0.58526561  0.00000000  0.50000000  1
  Ba  Ba4  1  -0.00000000  0.58526561  0.50000000  1
  Ba  Ba5  1  0.41473439  0.41473439  0.50000000  1
  Pb  Pb6  1  0.33333333  0.66666667  0.00000000  1
  Pb  Pb7  1  0.66666667  0.33333333  0.00000000  1
  Pb  Pb8  1  0.00000000  0.00000000  0.50000000  1
