# generated using pymatgen
data_Na2BeGeS4
_symmetry_space_group_name_H-M   'P 1'
_cell_length_a   6.18675872
_cell_length_b   6.18675872
_cell_length_c   6.25268789
_cell_angle_alpha   59.66748738
_cell_angle_beta   59.66748738
_cell_angle_gamma   88.80742416
_symmetry_Int_Tables_number   1
_chemical_formula_structural   Na2BeGeS4
_chemical_formula_sum   'Na2 Be1 Ge1 S4'
_cell_volume   169.24685487
_cell_formula_units_Z   1
loop_
 _symmetry_equiv_pos_site_id
 _symmetry_equiv_pos_as_xyz
  1  'x, y, z'
loop_
 _atom_site_type_symbol
 _atom_site_label
 _atom_site_symmetry_multiplicity
 _atom_site_fract_x
 _atom_site_fract_y
 _atom_site_fract_z
 _atom_site_occupancy
  Na  Na0  1  0.48568470  0.51431529  0.50000000  1
  Na  Na1  1  0.23559973  0.76440027  0.00000000  1
  Be  Be2  1  0.98588272  0.01411728  0.50000000  1
  Ge  Ge3  1  0.73594008  0.26405991  0.00000000  1
  S  S4  1  0.70053834  0.95719784  0.91680679  1
  S  S5  1  0.85455041  0.65395488  0.57464855  1
  S  S6  1  0.34604512  0.14544959  0.42535145  1
  S  S7  1  0.04280216  0.29946166  0.08319321  1
