# generated using pymatgen
data_GaHSe
_symmetry_space_group_name_H-M   'P 1'
_cell_length_a   3.82186193
_cell_length_b   5.14713727
_cell_length_c   6.67949097
_cell_angle_alpha   73.05662026
_cell_angle_beta   90.00000000
_cell_angle_gamma   90.00000000
_symmetry_Int_Tables_number   1
_chemical_formula_structural   GaHSe
_chemical_formula_sum   'Ga2 H2 Se2'
_cell_volume   125.69309116
_cell_formula_units_Z   2
loop_
 _symmetry_equiv_pos_site_id
 _symmetry_equiv_pos_as_xyz
  1  'x, y, z'
loop_
 _atom_site_type_symbol
 _atom_site_label
 _atom_site_symmetry_multiplicity
 _atom_site_fract_x
 _atom_site_fract_y
 _atom_site_fract_z
 _atom_site_occupancy
  Ga  Ga0  1  0.00000000  0.64525012  0.40187914  1
  Ga  Ga1  1  0.50000000  0.26814243  0.07318932  1
  H  H2  1  0.50000000  0.53320437  0.88710258  1
  H  H3  1  0.00000000  0.76955553  0.58781309  1
  Se  Se4  1  0.50000000  0.33161933  0.42549578  1
  Se  Se5  1  0.00000000  0.97327822  0.04844009  1
