# generated using pymatgen
data_ScHO2
_symmetry_space_group_name_H-M   'P 1'
_cell_length_a   3.24000000
_cell_length_b   4.01000000
_cell_length_c   6.70368742
_cell_angle_alpha   90.00000000
_cell_angle_beta   103.98442024
_cell_angle_gamma   90.00000000
_symmetry_Int_Tables_number   1
_chemical_formula_structural   ScHO2
_chemical_formula_sum   'Sc2 H2 O4'
_cell_volume   84.51556202
_cell_formula_units_Z   2
loop_
 _symmetry_equiv_pos_site_id
 _symmetry_equiv_pos_as_xyz
  1  'x, y, z'
loop_
 _atom_site_type_symbol
 _atom_site_label
 _atom_site_symmetry_multiplicity
 _atom_site_fract_x
 _atom_site_fract_y
 _atom_site_fract_z
 _atom_site_occupancy
  Sc  Sc6  1  0.33400000  0.25000000  0.66800000  1.0
  Sc  Sc7  1  0.66600000  0.75000000  0.33200000  1.0
  H  H0  1  0.98400100  0.43939900  0.96800200  1.0
  H  H1  1  0.01599900  0.93939900  0.03199800  1.0
  O  O2  1  0.73400000  0.25000000  0.46800000  1.0
  O  O3  1  0.26600000  0.75000000  0.53200000  1.0
  O  O4  1  0.93400000  0.25000000  0.86800000  1.0
  O  O5  1  0.06600000  0.75000000  0.13200000  1.0
