# generated using pymatgen
data_Na2AlGaTe4
_symmetry_space_group_name_H-M   'P 1'
_cell_length_a   7.17240311
_cell_length_b   7.17266680
_cell_length_c   7.41716069
_cell_angle_alpha   118.91074330
_cell_angle_beta   118.90435576
_cell_angle_gamma   90.00579196
_symmetry_Int_Tables_number   1
_chemical_formula_structural   Na2AlGaTe4
_chemical_formula_sum   'Na2 Al1 Ga1 Te4'
_cell_volume   278.47490460
_cell_formula_units_Z   1
loop_
 _symmetry_equiv_pos_site_id
 _symmetry_equiv_pos_as_xyz
  1  'x, y, z'
loop_
 _atom_site_type_symbol
 _atom_site_label
 _atom_site_symmetry_multiplicity
 _atom_site_fract_x
 _atom_site_fract_y
 _atom_site_fract_z
 _atom_site_occupancy
  Na  Na0  1  0.48586004  0.98598505  0.97170582  1
  Na  Na1  1  0.23581553  0.23579905  0.47169328  1
  Al  Al2  1  0.98594256  0.48593389  0.97181373  1
  Ga  Ga3  1  0.73580036  0.73580408  0.47168968  1
  Te  Te4  1  0.66718328  0.61268142  0.72544216  1
  Te  Te5  1  0.85916974  0.41364406  0.21824918  1
  Te  Te6  1  0.35914945  0.80453673  0.21814165  1
  Te  Te7  1  0.05813205  0.11266570  0.72536650  1
