# generated using pymatgen
data_TeBr3Cl
_symmetry_space_group_name_H-M   'P 1'
_cell_length_a   7.90391422
_cell_length_b   7.90391422
_cell_length_c   13.24584628
_cell_angle_alpha   90.00000000
_cell_angle_beta   90.00000000
_cell_angle_gamma   90.00000000
_symmetry_Int_Tables_number   1
_chemical_formula_structural   TeBr3Cl
_chemical_formula_sum   'Te4 Br12 Cl4'
_cell_volume   827.49265434
_cell_formula_units_Z   4
loop_
 _symmetry_equiv_pos_site_id
 _symmetry_equiv_pos_as_xyz
  1  'x, y, z'
loop_
 _atom_site_type_symbol
 _atom_site_label
 _atom_site_symmetry_multiplicity
 _atom_site_fract_x
 _atom_site_fract_y
 _atom_site_fract_z
 _atom_site_occupancy
  Te  Te0  1  0.63705856  0.86110075  0.48867496  1
  Te  Te1  1  0.86110075  0.36294144  0.23867496  1
  Te  Te2  1  0.13889925  0.63705856  0.73867496  1
  Te  Te3  1  0.36294144  0.13889925  0.98867496  1
  Br  Br4  1  0.50558088  0.32732499  0.13916551  1
  Br  Br5  1  0.63287299  0.10458393  0.88943643  1
  Br  Br6  1  0.67267501  0.50558088  0.38916551  1
  Br  Br7  1  0.83232520  0.00903311  0.34353989  1
  Br  Br8  1  0.89541607  0.63287299  0.13943643  1
  Br  Br9  1  0.99096689  0.83232520  0.59353989  1
  Br  Br10  1  0.00903311  0.16767480  0.09353989  1
  Br  Br11  1  0.10458393  0.36712701  0.63943643  1
  Br  Br12  1  0.16767480  0.99096689  0.84353989  1
  Br  Br13  1  0.32732499  0.49441912  0.88916551  1
  Br  Br14  1  0.36712701  0.89541607  0.38943643  1
  Br  Br15  1  0.49441912  0.67267501  0.63916551  1
  Cl  Cl16  1  0.60397740  0.11563353  0.58046822  1
  Cl  Cl17  1  0.88436647  0.60397740  0.83046822  1
  Cl  Cl18  1  0.11563353  0.39602260  0.33046822  1
  Cl  Cl19  1  0.39602260  0.88436647  0.08046822  1
