# generated using pymatgen
data_Al2InP3
_symmetry_space_group_name_H-M   'P 1'
_cell_length_a   6.91663086
_cell_length_b   6.91663086
_cell_length_c   6.90150504
_cell_angle_alpha   80.47455720
_cell_angle_beta   80.47455720
_cell_angle_gamma   120.07771332
_symmetry_Int_Tables_number   1
_chemical_formula_structural   Al2InP3
_chemical_formula_sum   'Al4 In2 P6'
_cell_volume   269.56709146
_cell_formula_units_Z   2
loop_
 _symmetry_equiv_pos_site_id
 _symmetry_equiv_pos_as_xyz
  1  'x, y, z'
loop_
 _atom_site_type_symbol
 _atom_site_label
 _atom_site_symmetry_multiplicity
 _atom_site_fract_x
 _atom_site_fract_y
 _atom_site_fract_z
 _atom_site_occupancy
  Al  Al0  1  0.42914016  0.59458609  0.99278125  1
  Al  Al1  1  0.26587991  0.75869495  0.49223432  1
  Al  Al2  1  0.59458609  0.42914016  0.49278125  1
  Al  Al3  1  0.75869495  0.26587991  0.99223432  1
  In  In4  1  0.92501970  0.09830095  0.49253389  1
  In  In5  1  0.09830095  0.92501970  0.99253389  1
  P  P6  1  0.24217020  0.05583447  0.60142293  1
  P  P7  1  0.05583447  0.24217020  0.10142293  1
  P  P8  1  0.40630554  0.88361732  0.12399779  1
  P  P9  1  0.88361732  0.40630554  0.62399779  1
  P  P10  1  0.69990046  0.53558225  0.12575281  1
  P  P11  1  0.53558225  0.69990046  0.62575281  1
