# generated using pymatgen
data_NbAgO3
_symmetry_space_group_name_H-M   'P 1'
_cell_length_a   5.72320119
_cell_length_b   5.72320119
_cell_length_c   5.72320119
_cell_angle_alpha   58.69429708
_cell_angle_beta   58.69429708
_cell_angle_gamma   58.69429708
_symmetry_Int_Tables_number   1
_chemical_formula_structural   NbAgO3
_chemical_formula_sum   'Nb2 Ag2 O6'
_cell_volume   128.60180870
_cell_formula_units_Z   2
loop_
 _symmetry_equiv_pos_site_id
 _symmetry_equiv_pos_as_xyz
  1  'x, y, z'
loop_
 _atom_site_type_symbol
 _atom_site_label
 _atom_site_symmetry_multiplicity
 _atom_site_fract_x
 _atom_site_fract_y
 _atom_site_fract_z
 _atom_site_occupancy
  Nb  Nb0  1  0.01050394  0.01050394  0.01050394  1
  Nb  Nb1  1  0.51050394  0.51050394  0.51050394  1
  Ag  Ag2  1  0.75491864  0.75491864  0.75491864  1
  Ag  Ag3  1  0.25491864  0.25491864  0.25491864  1
  O  O4  1  0.24352611  0.81183648  0.67701480  1
  O  O5  1  0.81183648  0.67701480  0.24352611  1
  O  O6  1  0.67701480  0.24352611  0.81183648  1
  O  O7  1  0.74352611  0.17701480  0.31183648  1
  O  O8  1  0.31183648  0.74352611  0.17701480  1
  O  O9  1  0.17701480  0.31183648  0.74352611  1
