# generated using pymatgen
data_Ga4SnS7
_symmetry_space_group_name_H-M   'P 1'
_cell_length_a   6.05960500
_cell_length_b   6.44963458
_cell_length_c   15.03021239
_cell_angle_alpha   90.00000000
_cell_angle_beta   90.00000000
_cell_angle_gamma   90.00000000
_symmetry_Int_Tables_number   1
_chemical_formula_structural   Ga4SnS7
_chemical_formula_sum   'Ga8 Sn2 S14'
_cell_volume   587.41433705
_cell_formula_units_Z   2
loop_
 _symmetry_equiv_pos_site_id
 _symmetry_equiv_pos_as_xyz
  1  'x, y, z'
loop_
 _atom_site_type_symbol
 _atom_site_label
 _atom_site_symmetry_multiplicity
 _atom_site_fract_x
 _atom_site_fract_y
 _atom_site_fract_z
 _atom_site_occupancy
  Ga  Ga0  1  0.58476283  0.65838763  0.87639054  1
  Ga  Ga1  1  0.07722030  0.82004462  0.25385440  1
  Ga  Ga2  1  0.57722030  0.17995538  0.24614560  1
  Ga  Ga3  1  0.08476283  0.34161237  0.62360946  1
  Ga  Ga4  1  0.08476283  0.34161237  0.37639054  1
  Ga  Ga5  1  0.58476283  0.65838763  0.12360946  1
  Ga  Ga6  1  0.07722030  0.82004462  0.74614560  1
  Ga  Ga7  1  0.57722030  0.17995538  0.75385440  1
  Sn  Sn8  1  0.54789423  0.02374525  0.50000000  1
  Sn  Sn9  1  0.04789423  0.97625475  0.00000000  1
  S  S10  1  0.97001615  0.67718776  0.11978413  1
  S  S11  1  0.47001615  0.32281224  0.38021587  1
  S  S12  1  0.46339663  0.33053113  0.87927124  1
  S  S13  1  0.96339663  0.66946887  0.62072876  1
  S  S14  1  0.96339663  0.66946887  0.37927124  1
  S  S15  1  0.46339663  0.33053113  0.12072876  1
  S  S16  1  0.46576621  0.83262574  0.74833745  1
  S  S17  1  0.96576621  0.16737426  0.75166255  1
  S  S18  1  0.96576621  0.16737426  0.24833745  1
  S  S19  1  0.46576621  0.83262574  0.25166255  1
  S  S20  1  0.48461053  0.85139182  0.00000000  1
  S  S21  1  0.98461053  0.14860818  0.50000000  1
  S  S22  1  0.97001615  0.67718776  0.88021587  1
  S  S23  1  0.47001615  0.32281224  0.61978413  1
