# generated using pymatgen
data_BiIBr2
_symmetry_space_group_name_H-M   'P 1'
_cell_length_a   7.55873119
_cell_length_b   7.55873119
_cell_length_c   7.55388927
_cell_angle_alpha   75.37410488
_cell_angle_beta   75.37410488
_cell_angle_gamma   112.65109290
_symmetry_Int_Tables_number   1
_chemical_formula_structural   BiIBr2
_chemical_formula_sum   'Bi2 I2 Br4'
_cell_volume   354.59927159
_cell_formula_units_Z   2
loop_
 _symmetry_equiv_pos_site_id
 _symmetry_equiv_pos_as_xyz
  1  'x, y, z'
loop_
 _atom_site_type_symbol
 _atom_site_label
 _atom_site_symmetry_multiplicity
 _atom_site_fract_x
 _atom_site_fract_y
 _atom_site_fract_z
 _atom_site_occupancy
  Bi  Bi0  1  0.47656197  0.29773347  0.57776705  1
  Bi  Bi1  1  0.29773347  0.47656197  0.07776705  1
  I  I2  1  0.24891906  0.06779286  0.35513905  1
  I  I3  1  0.06779286  0.24891906  0.85513905  1
  Br  Br4  1  0.89645407  0.38300595  0.36022876  1
  Br  Br5  1  0.66890914  0.54040348  0.79313014  1
  Br  Br6  1  0.38300595  0.89645407  0.86022876  1
  Br  Br7  1  0.54040348  0.66890914  0.29313014  1
