# generated using pymatgen
data_GaHSe
_symmetry_space_group_name_H-M   'P 1'
_cell_length_a   3.79036865
_cell_length_b   3.79036865
_cell_length_c   6.03082363
_cell_angle_alpha   71.96680523
_cell_angle_beta   71.96680523
_cell_angle_gamma   60.08097306
_symmetry_Int_Tables_number   1
_chemical_formula_structural   GaHSe
_chemical_formula_sum   'Ga1 H1 Se1'
_cell_volume   70.13129600
_cell_formula_units_Z   1
loop_
 _symmetry_equiv_pos_site_id
 _symmetry_equiv_pos_as_xyz
  1  'x, y, z'
loop_
 _atom_site_type_symbol
 _atom_site_label
 _atom_site_symmetry_multiplicity
 _atom_site_fract_x
 _atom_site_fract_y
 _atom_site_fract_z
 _atom_site_occupancy
  Ga  Ga0  1  0.14940777  0.14940777  0.81836210  1
  H  H1  1  0.05881527  0.05881527  0.09424277  1
  Se  Se2  1  0.55027696  0.55027696  0.61368513  1
