# generated using pymatgen
data_BPO4
_symmetry_space_group_name_H-M   'P 1'
_cell_length_a   4.39390000
_cell_length_b   4.55211763
_cell_length_c   4.39390000
_cell_angle_alpha   118.85675909
_cell_angle_beta   90.00000000
_cell_angle_gamma   118.85675909
_symmetry_Int_Tables_number   1
_chemical_formula_structural   BPO4
_chemical_formula_sum   'B1 P1 O4'
_cell_volume   64.23128509
_cell_formula_units_Z   1
loop_
 _symmetry_equiv_pos_site_id
 _symmetry_equiv_pos_as_xyz
  1  'x, y, z'
loop_
 _atom_site_type_symbol
 _atom_site_label
 _atom_site_symmetry_multiplicity
 _atom_site_fract_x
 _atom_site_fract_y
 _atom_site_fract_z
 _atom_site_occupancy
  B  B0  1  0.75000000  0.50000000  0.25000000  1.0
  P  P5  1  0.00000000  0.00000000  0.00000000  1.0
  O  O1  1  0.00240000  0.75000000  0.61810000  1.0
  O  O2  1  0.86810000  0.25000000  0.99760000  1.0
  O  O3  1  0.74760000  0.75000000  0.13190000  1.0
  O  O4  1  0.38190000  0.25000000  0.25240000  1.0
