# generated using pymatgen
data_ZrTi(PbO3)2
_symmetry_space_group_name_H-M   'P 1'
_cell_length_a   5.86624199
_cell_length_b   5.86624199
_cell_length_c   5.86624199
_cell_angle_alpha   59.22070326
_cell_angle_beta   59.22070326
_cell_angle_gamma   59.22070326
_symmetry_Int_Tables_number   1
_chemical_formula_structural   ZrTi(PbO3)2
_chemical_formula_sum   'Zr1 Ti1 Pb2 O6'
_cell_volume   140.21214015
_cell_formula_units_Z   1
loop_
 _symmetry_equiv_pos_site_id
 _symmetry_equiv_pos_as_xyz
  1  'x, y, z'
loop_
 _atom_site_type_symbol
 _atom_site_label
 _atom_site_symmetry_multiplicity
 _atom_site_fract_x
 _atom_site_fract_y
 _atom_site_fract_z
 _atom_site_occupancy
  Zr  Zr0  1  0.98710100  0.98710100  0.98710100  1
  Ti  Ti1  1  0.48676100  0.48676100  0.48676100  1
  Pb  Pb2  1  0.21896600  0.21896600  0.21896600  1
  Pb  Pb3  1  0.71598600  0.71598600  0.71598600  1
  O  O4  1  0.25720800  0.75555300  0.25720800  1
  O  O5  1  0.74119200  0.27105400  0.74119200  1
  O  O6  1  0.75555300  0.25720800  0.25720800  1
  O  O7  1  0.27105400  0.74119200  0.74119200  1
  O  O8  1  0.25720800  0.25720800  0.75555300  1
  O  O9  1  0.74119200  0.74119200  0.27105400  1
