# generated using pymatgen
data_P2S3
_symmetry_space_group_name_H-M   'P 1'
_cell_length_a   4.69534194
_cell_length_b   5.86341393
_cell_length_c   10.67374576
_cell_angle_alpha   90.00000000
_cell_angle_beta   90.00000000
_cell_angle_gamma   90.00000000
_symmetry_Int_Tables_number   1
_chemical_formula_structural   P2S3
_chemical_formula_sum   'P4 S6'
_cell_volume   293.85604823
_cell_formula_units_Z   2
loop_
 _symmetry_equiv_pos_site_id
 _symmetry_equiv_pos_as_xyz
  1  'x, y, z'
loop_
 _atom_site_type_symbol
 _atom_site_label
 _atom_site_symmetry_multiplicity
 _atom_site_fract_x
 _atom_site_fract_y
 _atom_site_fract_z
 _atom_site_occupancy
  P  P0  1  0.33214911  0.60643555  0.14716198  1
  P  P1  1  0.83214911  0.39356445  0.35283802  1
  P  P2  1  0.83214911  0.39356445  0.64716198  1
  P  P3  1  0.33214911  0.60643555  0.85283802  1
  S  S4  1  0.01759264  0.70332844  0.28115077  1
  S  S5  1  0.51759264  0.29667156  0.21884923  1
  S  S6  1  0.51759264  0.29667156  0.78115077  1
  S  S7  1  0.01759264  0.70332844  0.71884923  1
  S  S8  1  0.09140650  0.44590891  0.00000000  1
  S  S9  1  0.59140650  0.55409109  0.50000000  1
