# generated using pymatgen
data_HAuSe
_symmetry_space_group_name_H-M   'P 1'
_cell_length_a   4.55854999
_cell_length_b   4.55854999
_cell_length_c   7.27529982
_cell_angle_alpha   71.01748136
_cell_angle_beta   71.01748136
_cell_angle_gamma   66.90871006
_symmetry_Int_Tables_number   1
_chemical_formula_structural   HAuSe
_chemical_formula_sum   'H2 Au2 Se2'
_cell_volume   128.06605362
_cell_formula_units_Z   2
loop_
 _symmetry_equiv_pos_site_id
 _symmetry_equiv_pos_as_xyz
  1  'x, y, z'
loop_
 _atom_site_type_symbol
 _atom_site_label
 _atom_site_symmetry_multiplicity
 _atom_site_fract_x
 _atom_site_fract_y
 _atom_site_fract_z
 _atom_site_occupancy
  H  H0  1  0.86004054  0.64390026  0.08544314  1
  H  H1  1  0.64390026  0.86004054  0.58544314  1
  Au  Au2  1  0.03779013  0.04542547  0.42989980  1
  Au  Au3  1  0.04542547  0.03779013  0.92989980  1
  Se  Se4  1  0.70460523  0.36549839  0.18005706  1
  Se  Se5  1  0.36549839  0.70460523  0.68005706  1
