# generated using pymatgen
data_BiBrCl2
_symmetry_space_group_name_H-M   'P 1'
_cell_length_a   7.18684354
_cell_length_b   7.18684354
_cell_length_c   7.13893822
_cell_angle_alpha   75.95497873
_cell_angle_beta   75.95497873
_cell_angle_gamma   113.71901456
_symmetry_Int_Tables_number   1
_chemical_formula_structural   BiBrCl2
_chemical_formula_sum   'Bi2 Br2 Cl4'
_cell_volume   302.49916545
_cell_formula_units_Z   2
loop_
 _symmetry_equiv_pos_site_id
 _symmetry_equiv_pos_as_xyz
  1  'x, y, z'
loop_
 _atom_site_type_symbol
 _atom_site_label
 _atom_site_symmetry_multiplicity
 _atom_site_fract_x
 _atom_site_fract_y
 _atom_site_fract_z
 _atom_site_occupancy
  Bi  Bi0  1  0.70440618  0.52016788  0.41960192  1
  Bi  Bi1  1  0.52016788  0.70440618  0.91960192  1
  Br  Br2  1  0.92008001  0.75417487  0.64558763  1
  Br  Br3  1  0.75417487  0.92008001  0.14558763  1
  Cl  Cl4  1  0.61667040  0.10756176  0.64921794  1
  Cl  Cl5  1  0.46194513  0.33521477  0.19932651  1
  Cl  Cl6  1  0.10756176  0.61667040  0.14921794  1
  Cl  Cl7  1  0.33521477  0.46194513  0.69932651  1
