# generated using pymatgen
data_Na2TlPS4
_symmetry_space_group_name_H-M   'P 1'
_cell_length_a   6.46233647
_cell_length_b   6.46233647
_cell_length_c   6.46233647
_cell_angle_alpha   113.50319398
_cell_angle_beta   113.47397731
_cell_angle_gamma   101.70468086
_symmetry_Int_Tables_number   1
_chemical_formula_structural   Na2TlPS4
_chemical_formula_sum   'Na2 Tl1 P1 S4'
_cell_volume   204.94470394
_cell_formula_units_Z   1
loop_
 _symmetry_equiv_pos_site_id
 _symmetry_equiv_pos_as_xyz
  1  'x, y, z'
loop_
 _atom_site_type_symbol
 _atom_site_label
 _atom_site_symmetry_multiplicity
 _atom_site_fract_x
 _atom_site_fract_y
 _atom_site_fract_z
 _atom_site_occupancy
  Na  Na0  1  0.24974812  0.74974812  0.50000000  1
  Na  Na1  1  0.75025188  0.25025188  0.50000000  1
  Tl  Tl2  1  0.00000000  0.00000000  0.00000000  1
  P  P3  1  0.50000000  0.50000000  -0.00000000  1
  S  S4  1  0.52849164  0.18787586  0.99994473  1
  S  S5  1  0.18793113  0.52854691  0.00005527  1
  S  S6  1  0.81206887  0.81212414  0.34061578  1
  S  S7  1  0.47150836  0.47145309  0.65938422  1
