# generated using pymatgen
data_ZrTi(PbO3)2
_symmetry_space_group_name_H-M   'P 1'
_cell_length_a   4.20744563
_cell_length_b   4.25527616
_cell_length_c   8.02409562
_cell_angle_alpha   89.74460686
_cell_angle_beta   89.81914628
_cell_angle_gamma   87.99079201
_symmetry_Int_Tables_number   1
_chemical_formula_structural   ZrTi(PbO3)2
_chemical_formula_sum   'Zr1 Ti1 Pb2 O6'
_cell_volume   143.57175292
_cell_formula_units_Z   1
loop_
 _symmetry_equiv_pos_site_id
 _symmetry_equiv_pos_as_xyz
  1  'x, y, z'
loop_
 _atom_site_type_symbol
 _atom_site_label
 _atom_site_symmetry_multiplicity
 _atom_site_fract_x
 _atom_site_fract_y
 _atom_site_fract_z
 _atom_site_occupancy
  Zr  Zr0  1  0.53327663  0.53746272  0.26959000  1
  Ti  Ti1  1  0.50637444  0.51344293  0.76981629  1
  Pb  Pb2  1  0.97652207  0.97751652  0.00284314  1
  Pb  Pb3  1  0.97620410  0.97660096  0.52255388  1
  O  O4  1  0.04916203  0.59172261  0.27516937  1
  O  O5  1  0.07141507  0.58359866  0.77287835  1
  O  O6  1  0.57615668  0.59177301  0.00797096  1
  O  O7  1  0.57536303  0.59110341  0.53479776  1
  O  O8  1  0.57440361  0.06136956  0.27501959  1
  O  O9  1  0.56852235  0.08801062  0.77305966  1
