# generated using pymatgen
data_TeO2
_symmetry_space_group_name_H-M   'P 1'
_cell_length_a   4.60530000
_cell_length_b   4.85570000
_cell_length_c   7.53000000
_cell_angle_alpha   90.00000000
_cell_angle_beta   90.00000000
_cell_angle_gamma   90.00000000
_symmetry_Int_Tables_number   1
_chemical_formula_structural   TeO2
_chemical_formula_sum   'Te4 O8'
_cell_volume   168.38552273
_cell_formula_units_Z   4
loop_
 _symmetry_equiv_pos_site_id
 _symmetry_equiv_pos_as_xyz
  1  'x, y, z'
loop_
 _atom_site_type_symbol
 _atom_site_label
 _atom_site_symmetry_multiplicity
 _atom_site_fract_x
 _atom_site_fract_y
 _atom_site_fract_z
 _atom_site_occupancy
  Te  Te0  1  0.72600000  0.51200000  0.38300000  1.0
  Te  Te1  1  0.27400000  0.01200000  0.11700000  1.0
  Te  Te2  1  0.22600000  0.98800000  0.61700000  1.0
  Te  Te3  1  0.77400000  0.48800000  0.88300000  1.0
  O  O4  1  0.54900000  0.12000000  0.94000000  1.0
  O  O5  1  0.04900000  0.38000000  0.06000000  1.0
  O  O6  1  0.40600000  0.23400000  0.33300000  1.0
  O  O7  1  0.45100000  0.62000000  0.56000000  1.0
  O  O8  1  0.95100000  0.88000000  0.44000000  1.0
  O  O9  1  0.09400000  0.76600000  0.83300000  1.0
  O  O10  1  0.59400000  0.73400000  0.16700000  1.0
  O  O11  1  0.90600000  0.26600000  0.66700000  1.0
