# generated using pymatgen
data_HfPbO3
_symmetry_space_group_name_H-M   'P 1'
_cell_length_a   5.90629239
_cell_length_b   5.90629239
_cell_length_c   5.90629239
_cell_angle_alpha   59.52829911
_cell_angle_beta   59.52829911
_cell_angle_gamma   59.52829911
_symmetry_Int_Tables_number   1
_chemical_formula_structural   HfPbO3
_chemical_formula_sum   'Hf2 Pb2 O6'
_cell_volume   144.12737243
_cell_formula_units_Z   2
loop_
 _symmetry_equiv_pos_site_id
 _symmetry_equiv_pos_as_xyz
  1  'x, y, z'
loop_
 _atom_site_type_symbol
 _atom_site_label
 _atom_site_symmetry_multiplicity
 _atom_site_fract_x
 _atom_site_fract_y
 _atom_site_fract_z
 _atom_site_occupancy
  Hf  Hf0  1  0.00050970  0.00050970  0.00050970  1
  Hf  Hf1  1  0.50050970  0.50050970  0.50050970  1
  Pb  Pb2  1  0.73032690  0.73032690  0.73032690  1
  Pb  Pb3  1  0.23032690  0.23032690  0.23032690  1
  O  O4  1  0.77437270  0.21468018  0.29840052  1
  O  O5  1  0.71468018  0.27437270  0.79840052  1
  O  O6  1  0.79840052  0.71468018  0.27437270  1
  O  O7  1  0.27437270  0.79840052  0.71468018  1
  O  O8  1  0.21468018  0.29840052  0.77437270  1
  O  O9  1  0.29840052  0.77437270  0.21468018  1
