# generated using pymatgen
data_SrLi2SiS4
_symmetry_space_group_name_H-M   'P 1'
_cell_length_a   6.04536042
_cell_length_b   6.04536042
_cell_length_c   6.04536042
_cell_angle_alpha   114.67319579
_cell_angle_beta   114.67067940
_cell_angle_gamma   99.50629075
_symmetry_Int_Tables_number   1
_chemical_formula_structural   SrLi2SiS4
_chemical_formula_sum   'Sr1 Li2 Si1 S4'
_cell_volume   166.31764450
_cell_formula_units_Z   1
loop_
 _symmetry_equiv_pos_site_id
 _symmetry_equiv_pos_as_xyz
  1  'x, y, z'
loop_
 _atom_site_type_symbol
 _atom_site_label
 _atom_site_symmetry_multiplicity
 _atom_site_fract_x
 _atom_site_fract_y
 _atom_site_fract_z
 _atom_site_occupancy
  Sr  Sr0  1  0.50000000  0.50000000  -0.00000000  1
  Li  Li1  1  0.74991734  0.24991734  0.50000000  1
  Li  Li2  1  0.25008266  0.75008266  0.50000000  1
  Si  Si3  1  0.00000000  0.00000000  0.00000000  1
  S  S4  1  0.65261852  0.03313973  0.99999266  1
  S  S5  1  0.03314707  0.65262586  0.00000734  1
  S  S6  1  0.96685293  0.96686027  0.61947879  1
  S  S7  1  0.34738148  0.34737414  0.38052121  1
