# generated using pymatgen
data_LiNb(AsO3)2
_symmetry_space_group_name_H-M   'P 1'
_cell_length_a   5.70058208
_cell_length_b   5.70062204
_cell_length_c   5.88601094
_cell_angle_alpha   100.59765935
_cell_angle_beta   116.66488709
_cell_angle_gamma   110.28781873
_symmetry_Int_Tables_number   1
_chemical_formula_structural   LiNb(AsO3)2
_chemical_formula_sum   'Li1 Nb1 As2 O6'
_cell_volume   146.58847038
_cell_formula_units_Z   1
loop_
 _symmetry_equiv_pos_site_id
 _symmetry_equiv_pos_as_xyz
  1  'x, y, z'
loop_
 _atom_site_type_symbol
 _atom_site_label
 _atom_site_symmetry_multiplicity
 _atom_site_fract_x
 _atom_site_fract_y
 _atom_site_fract_z
 _atom_site_occupancy
  Li  Li0  1  0.94186890  0.44286318  0.51629521  1
  Nb  Nb1  1  0.02301377  0.02423217  0.01630547  1
  As  As2  1  0.31761295  0.61946816  0.20437212  1
  As  As3  1  0.43013066  0.13070898  0.82815605  1
  O  O4  1  0.07013028  0.35653163  0.85803943  1
  O  O5  1  0.07222653  0.77433592  0.18792767  1
  O  O6  1  0.05265099  0.85631860  0.70881323  1
  O  O7  1  0.60150045  0.90182005  0.84479988  1
  O  O8  1  0.51356631  0.22979210  0.17450671  1
  O  O9  1  0.16269017  0.36140122  0.32383523  1
