# generated using pymatgen
data_K2MgSiS4
_symmetry_space_group_name_H-M   'P 1'
_cell_length_a   6.54972342
_cell_length_b   6.55065755
_cell_length_c   6.55498478
_cell_angle_alpha   115.20950581
_cell_angle_beta   115.22113736
_cell_angle_gamma   98.45789573
_symmetry_Int_Tables_number   1
_chemical_formula_structural   K2MgSiS4
_chemical_formula_sum   'K2 Mg1 Si1 S4'
_cell_volume   210.83541249
_cell_formula_units_Z   1
loop_
 _symmetry_equiv_pos_site_id
 _symmetry_equiv_pos_as_xyz
  1  'x, y, z'
loop_
 _atom_site_type_symbol
 _atom_site_label
 _atom_site_symmetry_multiplicity
 _atom_site_fract_x
 _atom_site_fract_y
 _atom_site_fract_z
 _atom_site_occupancy
  K  K0  1  0.98661255  0.48654839  0.49998721  1
  K  K1  1  0.23609323  0.23609125  0.99994187  1
  Mg  Mg2  1  0.48608622  0.98608127  0.50009355  1
  Si  Si3  1  0.73576510  0.73579205  0.99999714  1
  S  S4  1  0.65255712  0.72213682  0.63859192  1
  S  S5  1  0.45726566  0.81879141  0.06964759  1
  S  S6  1  0.74917119  0.38774504  0.93046854  1
  S  S7  1  0.08349896  0.01386678  0.36127321  1
