# generated using pymatgen
data_NaSc2NbO6
_symmetry_space_group_name_H-M   'P 1'
_cell_length_a   5.80667367
_cell_length_b   5.80667367
_cell_length_c   5.80667367
_cell_angle_alpha   55.84379063
_cell_angle_beta   55.84379063
_cell_angle_gamma   55.84379063
_symmetry_Int_Tables_number   1
_chemical_formula_structural   NaSc2NbO6
_chemical_formula_sum   'Na1 Sc2 Nb1 O6'
_cell_volume   125.10229949
_cell_formula_units_Z   1
loop_
 _symmetry_equiv_pos_site_id
 _symmetry_equiv_pos_as_xyz
  1  'x, y, z'
loop_
 _atom_site_type_symbol
 _atom_site_label
 _atom_site_symmetry_multiplicity
 _atom_site_fract_x
 _atom_site_fract_y
 _atom_site_fract_z
 _atom_site_occupancy
  Na  Na0  1  0.79598285  0.79598285  0.79598285  1
  Sc  Sc1  1  0.51694871  0.51694871  0.51694871  1
  Sc  Sc2  1  0.01879312  0.01879312  0.01879312  1
  Nb  Nb3  1  0.31415968  0.31415968  0.31415968  1
  O  O4  1  0.93567804  0.58954246  0.24690748  1
  O  O5  1  0.58954246  0.24690748  0.93567804  1
  O  O6  1  0.24690748  0.93567804  0.58954246  1
  O  O7  1  0.16588230  0.36321605  0.71456875  1
  O  O8  1  0.36321605  0.71456875  0.16588230  1
  O  O9  1  0.71456875  0.16588230  0.36321605  1
