# generated using pymatgen
data_Mg2SiS4
_symmetry_space_group_name_H-M   'P 1'
_cell_length_a   6.32447220
_cell_length_b   6.32447220
_cell_length_c   6.32447220
_cell_angle_alpha   124.00654157
_cell_angle_beta   124.00654157
_cell_angle_gamma   83.19012501
_symmetry_Int_Tables_number   1
_chemical_formula_structural   Mg2SiS4
_chemical_formula_sum   'Mg2 Si1 S4'
_cell_volume   166.75380559
_cell_formula_units_Z   1
loop_
 _symmetry_equiv_pos_site_id
 _symmetry_equiv_pos_as_xyz
  1  'x, y, z'
loop_
 _atom_site_type_symbol
 _atom_site_label
 _atom_site_symmetry_multiplicity
 _atom_site_fract_x
 _atom_site_fract_y
 _atom_site_fract_z
 _atom_site_occupancy
  Mg  Mg0  1  0.25000000  0.75000000  0.50000000  1
  Mg  Mg1  1  0.75000000  0.25000000  0.50000000  1
  Si  Si2  1  0.50000000  0.50000000  0.00000000  1
  S  S3  1  0.60574853  0.16589409  1.00000000  1
  S  S4  1  0.16589409  0.60574853  0.00000000  1
  S  S5  1  0.83410591  0.83410591  0.43985444  1
  S  S6  1  0.39425147  0.39425147  0.56014556  1
