# generated using pymatgen
data_ZnHBr
_symmetry_space_group_name_H-M   'P 1'
_cell_length_a   4.53670000
_cell_length_b   4.71162000
_cell_length_c   6.45953000
_cell_angle_alpha   69.07988998
_cell_angle_beta   90.00000000
_cell_angle_gamma   90.00000000
_symmetry_Int_Tables_number   1
_chemical_formula_structural   ZnHBr
_chemical_formula_sum   'Zn2 H2 Br2'
_cell_volume   128.97185379
_cell_formula_units_Z   2
loop_
 _symmetry_equiv_pos_site_id
 _symmetry_equiv_pos_as_xyz
  1  'x, y, z'
loop_
 _atom_site_type_symbol
 _atom_site_label
 _atom_site_symmetry_multiplicity
 _atom_site_fract_x
 _atom_site_fract_y
 _atom_site_fract_z
 _atom_site_occupancy
  Zn  Zn0  1  0.33713000  0.18932000  0.00008000  1
  Zn  Zn1  1  0.83713000  0.81068000  0.99992000  1
  H  H2  1  0.08706000  0.93120000  0.14083000  1
  H  H3  1  0.58706000  0.06880000  0.85917000  1
  Br  Br4  1  0.08756000  0.63352000  0.72766000  1
  Br  Br5  1  0.58756000  0.36648000  0.27234000  1
