# generated using pymatgen
data_LiMg2AlS4
_symmetry_space_group_name_H-M   'P 1'
_cell_length_a   6.36918023
_cell_length_b   6.78094897
_cell_length_c   8.04040387
_cell_angle_alpha   90.00000000
_cell_angle_beta   90.00000000
_cell_angle_gamma   90.00000000
_symmetry_Int_Tables_number   1
_chemical_formula_structural   LiMg2AlS4
_chemical_formula_sum   'Li2 Mg4 Al2 S8'
_cell_volume   347.25769519
_cell_formula_units_Z   2
loop_
 _symmetry_equiv_pos_site_id
 _symmetry_equiv_pos_as_xyz
  1  'x, y, z'
loop_
 _atom_site_type_symbol
 _atom_site_label
 _atom_site_symmetry_multiplicity
 _atom_site_fract_x
 _atom_site_fract_y
 _atom_site_fract_z
 _atom_site_occupancy
  Li  Li0  1  0.99430483  0.16009021  0.50000000  1
  Li  Li1  1  0.49430483  0.83990979  0.00000000  1
  Mg  Mg2  1  0.49803890  0.32628516  0.25232072  1
  Mg  Mg3  1  0.49803890  0.32628516  0.74767928  1
  Mg  Mg4  1  0.99803890  0.67371484  0.75232072  1
  Mg  Mg5  1  0.99803890  0.67371484  0.24767928  1
  Al  Al6  1  0.49913919  0.82612874  0.50000000  1
  Al  Al7  1  0.99913919  0.17387126  0.00000000  1
  S  S8  1  0.35608991  0.17603278  0.00000000  1
  S  S9  1  0.85608991  0.82396722  0.50000000  1
  S  S10  1  0.38172830  0.14284079  0.50000000  1
  S  S11  1  0.88172830  0.85715921  0.00000000  1
  S  S12  1  0.38630199  0.67467972  0.73596084  1
  S  S13  1  0.88630199  0.32532028  0.23596084  1
  S  S14  1  0.88630199  0.32532028  0.76403916  1
  S  S15  1  0.38630199  0.67467972  0.26403916  1
