# generated using pymatgen
data_Si2N2O
_symmetry_space_group_name_H-M   'P 1'
_cell_length_a   4.84230000
_cell_length_b   5.21168108
_cell_length_c   5.21168108
_cell_angle_alpha   63.64461844
_cell_angle_beta   90.00000000
_cell_angle_gamma   90.00000000
_symmetry_Int_Tables_number   1
_chemical_formula_structural   Si2N2O
_chemical_formula_sum   'Si4 N4 O2'
_cell_volume   117.85373569
_cell_formula_units_Z   2
loop_
 _symmetry_equiv_pos_site_id
 _symmetry_equiv_pos_as_xyz
  1  'x, y, z'
loop_
 _atom_site_type_symbol
 _atom_site_label
 _atom_site_symmetry_multiplicity
 _atom_site_fract_x
 _atom_site_fract_y
 _atom_site_fract_z
 _atom_site_occupancy
  Si  Si6  1  0.27061000  0.97502000  0.67184000  1.0
  Si  Si7  1  0.77061000  0.02498000  0.32816000  1.0
  Si  Si8  1  0.77061000  0.67184000  0.97502000  1.0
  Si  Si9  1  0.27061000  0.32816000  0.02498000  1.0
  N  N0  1  0.61620000  0.90665000  0.65855000  1.0
  N  N1  1  0.11620000  0.09335000  0.34145000  1.0
  N  N2  1  0.11620000  0.65855000  0.90665000  1.0
  N  N3  1  0.61620000  0.34145000  0.09335000  1.0
  O  O4  1  0.21910000  0.21300000  0.78700000  1.0
  O  O5  1  0.71910000  0.78700000  0.21300000  1.0
