# generated using pymatgen
data_Ge2N2O
_symmetry_space_group_name_H-M   'P 1'
_cell_length_a   5.07200000
_cell_length_b   5.42843739
_cell_length_c   5.42843739
_cell_angle_alpha   63.20186667
_cell_angle_beta   90.00000000
_cell_angle_gamma   90.00000000
_symmetry_Int_Tables_number   1
_chemical_formula_structural   Ge2N2O
_chemical_formula_sum   'Ge4 N4 O2'
_cell_volume   133.40928008
_cell_formula_units_Z   2
loop_
 _symmetry_equiv_pos_site_id
 _symmetry_equiv_pos_as_xyz
  1  'x, y, z'
loop_
 _atom_site_type_symbol
 _atom_site_label
 _atom_site_symmetry_multiplicity
 _atom_site_fract_x
 _atom_site_fract_y
 _atom_site_fract_z
 _atom_site_occupancy
  Ge  Ge0  1  0.59500000  0.02000000  0.31000000  1.0
  Ge  Ge1  1  0.09500000  0.98000000  0.69000000  1.0
  Ge  Ge2  1  0.09500000  0.31000000  0.02000000  1.0
  Ge  Ge3  1  0.59500000  0.69000000  0.98000000  1.0
  N  N4  1  0.75600000  0.33400000  0.05200000  1.0
  N  N5  1  0.25600000  0.66600000  0.94800000  1.0
  N  N6  1  0.25600000  0.05200000  0.33400000  1.0
  N  N7  1  0.75600000  0.94800000  0.66600000  1.0
  O  O8  1  0.77000000  0.71400000  0.28600000  1.0
  O  O9  1  0.27000000  0.28600000  0.71400000  1.0
