# generated using pymatgen
data_CsNaH6Pt
_symmetry_space_group_name_H-M   'P 1'
_cell_length_a   5.40150435
_cell_length_b   5.40150435
_cell_length_c   5.91534181
_cell_angle_alpha   90.00000000
_cell_angle_beta   90.00000000
_cell_angle_gamma   120.00000000
_symmetry_Int_Tables_number   1
_chemical_formula_structural   CsNaH6Pt
_chemical_formula_sum   'Cs1 Na1 H6 Pt1'
_cell_volume   149.46514800
_cell_formula_units_Z   1
loop_
 _symmetry_equiv_pos_site_id
 _symmetry_equiv_pos_as_xyz
  1  'x, y, z'
loop_
 _atom_site_type_symbol
 _atom_site_label
 _atom_site_symmetry_multiplicity
 _atom_site_fract_x
 _atom_site_fract_y
 _atom_site_fract_z
 _atom_site_occupancy
  Cs  Cs0  1  0.33333333  0.66666667  0.00000000  1
  Na  Na1  1  0.66666667  0.33333333  0.50000000  1
  H  H2  1  0.75490731  0.99919419  0.33348599  1
  H  H3  1  0.75490731  0.75571313  0.66651401  1
  H  H4  1  0.24428687  0.99919419  0.66651401  1
  H  H5  1  0.00080581  0.24509269  0.66651401  1
  H  H6  1  0.24428687  0.24509269  0.33348599  1
  H  H7  1  0.00080581  0.75571313  0.33348599  1
  Pt  Pt8  1  -0.00000000  0.00000000  0.50000000  1
