# generated using pymatgen
data_H2S
_symmetry_space_group_name_H-M   'P 1'
_cell_length_a   4.35322035
_cell_length_b   4.67790063
_cell_length_c   4.84819353
_cell_angle_alpha   90.00000000
_cell_angle_beta   90.00000000
_cell_angle_gamma   90.00000000
_symmetry_Int_Tables_number   1
_chemical_formula_structural   H2S
_chemical_formula_sum   'H4 S2'
_cell_volume   98.72828442
_cell_formula_units_Z   2
loop_
 _symmetry_equiv_pos_site_id
 _symmetry_equiv_pos_as_xyz
  1  'x, y, z'
loop_
 _atom_site_type_symbol
 _atom_site_label
 _atom_site_symmetry_multiplicity
 _atom_site_fract_x
 _atom_site_fract_y
 _atom_site_fract_z
 _atom_site_occupancy
  H  H0  1  0.04351370  0.65204611  0.85815123  1
  H  H1  1  0.04351370  0.34795389  0.14184877  1
  H  H2  1  0.54351370  0.15204611  0.64184877  1
  H  H3  1  0.54351370  0.84795389  0.35815123  1
  S  S4  1  0.82971259  0.50000000  0.00000000  1
  S  S5  1  0.32971259  0.00000000  0.50000000  1
