# generated using pymatgen
data_CsFeP(H6O5)2
_symmetry_space_group_name_H-M   'P 1'
_cell_length_a   7.15344519
_cell_length_b   7.18051209
_cell_length_c   7.18661715
_cell_angle_alpha   90.33479463
_cell_angle_beta   119.75899297
_cell_angle_gamma   119.71141226
_symmetry_Int_Tables_number   1
_chemical_formula_structural   CsFeP(H6O5)2
_chemical_formula_sum   'Cs1 Fe1 P1 H12 O10'
_cell_volume   262.34495368
_cell_formula_units_Z   1
loop_
 _symmetry_equiv_pos_site_id
 _symmetry_equiv_pos_as_xyz
  1  'x, y, z'
loop_
 _atom_site_type_symbol
 _atom_site_label
 _atom_site_symmetry_multiplicity
 _atom_site_fract_x
 _atom_site_fract_y
 _atom_site_fract_z
 _atom_site_occupancy
  Cs  Cs0  1  0.49986900  0.75027100  0.24966300  1
  Fe  Fe1  1  0.99933600  0.00186100  0.99792300  1
  P  P2  1  0.50017600  0.24976300  0.75031500  1
  H  H3  1  0.88333400  0.61751000  0.15061200  1
  H  H4  1  0.88342700  0.61768600  0.73469700  1
  H  H5  1  0.46782300  0.61690200  0.73495100  1
  H  H6  1  0.88191600  0.26509000  0.73330500  1
  H  H7  1  0.88394300  0.26545300  0.14843500  1
  H  H8  1  0.46884200  0.85102200  0.73314900  1
  H  H9  1  0.11807800  0.26670700  0.73479500  1
  H  H10  1  0.11597200  0.85135500  0.73423500  1
  H  H11  1  0.53151600  0.26703200  0.14940000  1
  H  H12  1  0.11665500  0.84939100  0.38261000  1
  H  H13  1  0.11673700  0.26524200  0.38264600  1
  H  H14  1  0.53232200  0.26520300  0.38283100  1
  O  O15  1  0.99975000  0.78777500  0.21244600  1
  O  O16  1  0.99784400  0.78841200  0.78749000  1
  O  O17  1  0.57665700  0.78739800  0.78726600  1
  O  O18  1  0.00001000  0.21174400  0.78791100  1
  O  O19  1  0.00186400  0.21175000  0.21199600  1
  O  O20  1  0.42338900  0.21307400  0.21244900  1
  O  O21  1  0.32330900  0.98413400  0.66211000  1
  O  O22  1  0.32200500  0.33869900  0.66142400  1
  O  O23  1  0.67815300  0.33859200  0.66156200  1
  O  O24  1  0.67708400  0.33793900  0.01579600  1
