# generated using pymatgen
data_H4BrN
_symmetry_space_group_name_H-M   'P 1'
_cell_length_a   4.92007076
_cell_length_b   4.92007076
_cell_length_c   4.88178203
_cell_angle_alpha   60.31416832
_cell_angle_beta   60.31416832
_cell_angle_gamma   64.63774021
_symmetry_Int_Tables_number   1
_chemical_formula_structural   H4BrN
_chemical_formula_sum   'H4 Br1 N1'
_cell_volume   86.52601979
_cell_formula_units_Z   1
loop_
 _symmetry_equiv_pos_site_id
 _symmetry_equiv_pos_as_xyz
  1  'x, y, z'
loop_
 _atom_site_type_symbol
 _atom_site_label
 _atom_site_symmetry_multiplicity
 _atom_site_fract_x
 _atom_site_fract_y
 _atom_site_fract_z
 _atom_site_occupancy
  H  H0  1  0.16243634  0.83831329  0.14384816  1
  H  H1  1  0.83831329  0.16243634  0.14384816  1
  H  H2  1  0.87135792  0.87135792  0.03209454  1
  H  H3  1  0.12773963  0.12773963  0.77442554  1
  Br  Br4  1  0.50015893  0.50015893  0.43551287  1
  N  N5  1  0.99999113  0.99999113  0.01926883  1
