# generated using pymatgen
data_SiHBr3
_symmetry_space_group_name_H-M   'P 1'
_cell_length_a   5.09054324
_cell_length_b   6.86309806
_cell_length_c   10.59226228
_cell_angle_alpha   90.06250926
_cell_angle_beta   90.02608031
_cell_angle_gamma   90.01820506
_symmetry_Int_Tables_number   1
_chemical_formula_structural   SiHBr3
_chemical_formula_sum   'Si2 H2 Br6'
_cell_volume   370.06050328
_cell_formula_units_Z   2
loop_
 _symmetry_equiv_pos_site_id
 _symmetry_equiv_pos_as_xyz
  1  'x, y, z'
loop_
 _atom_site_type_symbol
 _atom_site_label
 _atom_site_symmetry_multiplicity
 _atom_site_fract_x
 _atom_site_fract_y
 _atom_site_fract_z
 _atom_site_occupancy
  Si  Si0  1  0.17896895  0.72294875  0.29941877  1
  Si  Si1  1  0.46828151  0.22304976  0.79902002  1
  H  H2  1  0.46928793  0.70924039  0.29949814  1
  H  H3  1  0.17798321  0.20916479  0.79892807  1
  Br  Br4  1  0.58503978  0.53435800  0.79969730  1
  Br  Br5  1  0.02204098  0.57753542  0.12813964  1
  Br  Br6  1  0.62522653  0.07838582  0.62757741  1
  Br  Br7  1  0.06217669  0.03420624  0.29957848  1
  Br  Br8  1  0.62499383  0.07723276  0.96996506  1
  Br  Br9  1  0.02211558  0.57763208  0.47046712  1
