# generated using pymatgen
data_SiH3F
_symmetry_space_group_name_H-M   'P 1'
_cell_length_a   4.50770265
_cell_length_b   4.80988537
_cell_length_c   6.96922411
_cell_angle_alpha   90.01163144
_cell_angle_beta   90.09371037
_cell_angle_gamma   90.10054374
_symmetry_Int_Tables_number   1
_chemical_formula_structural   SiH3F
_chemical_formula_sum   'Si2 H6 F2'
_cell_volume   151.10302463
_cell_formula_units_Z   2
loop_
 _symmetry_equiv_pos_site_id
 _symmetry_equiv_pos_as_xyz
  1  'x, y, z'
loop_
 _atom_site_type_symbol
 _atom_site_label
 _atom_site_symmetry_multiplicity
 _atom_site_fract_x
 _atom_site_fract_y
 _atom_site_fract_z
 _atom_site_occupancy
  Si  Si0  1  0.87503635  0.27627487  0.29924885  1
  Si  Si1  1  0.47776300  0.77644464  0.79920763  1
  H  H2  1  0.39370627  0.47700474  0.79964222  1
  H  H3  1  0.97047587  0.41968725  0.12138478  1
  H  H4  1  0.38194190  0.91883104  0.62099452  1
  H  H5  1  0.95796285  0.97684923  0.29874170  1
  H  H6  1  0.38273405  0.91993895  0.97702822  1
  H  H7  1  0.97145535  0.41865414  0.47750874  1
  F  F8  1  0.51088346  0.28624722  0.29931307  1
  F  F9  1  0.84192689  0.78631291  0.79921927  1
