# generated using pymatgen
data_LiHCl2
_symmetry_space_group_name_H-M   'P 1'
_cell_length_a   3.99537858
_cell_length_b   3.99583067
_cell_length_c   6.35919794
_cell_angle_alpha   96.60542535
_cell_angle_beta   101.55410556
_cell_angle_gamma   119.90314697
_symmetry_Int_Tables_number   1
_chemical_formula_structural   LiHCl2
_chemical_formula_sum   'Li1 H1 Cl2'
_cell_volume   83.41889392
_cell_formula_units_Z   1
loop_
 _symmetry_equiv_pos_site_id
 _symmetry_equiv_pos_as_xyz
  1  'x, y, z'
loop_
 _atom_site_type_symbol
 _atom_site_label
 _atom_site_symmetry_multiplicity
 _atom_site_fract_x
 _atom_site_fract_y
 _atom_site_fract_z
 _atom_site_occupancy
  Li  Li0  1  0.12364462  0.36946575  0.51880233  1
  H  H1  1  0.80338564  0.12516046  0.95382157  1
  Cl  Cl2  1  0.01747902  0.07477093  0.12097405  1
  Cl  Cl3  1  0.51691177  0.08076123  0.62290702  1
