# generated using pymatgen
data_BeHCl
_symmetry_space_group_name_H-M   'P 1'
_cell_length_a   5.23846543
_cell_length_b   5.23846543
_cell_length_c   5.23846543
_cell_angle_alpha   133.33345626
_cell_angle_beta   113.47358237
_cell_angle_gamma   85.14873631
_symmetry_Int_Tables_number   1
_chemical_formula_structural   BeHCl
_chemical_formula_sum   'Be2 H2 Cl2'
_cell_volume   91.98839521
_cell_formula_units_Z   2
loop_
 _symmetry_equiv_pos_site_id
 _symmetry_equiv_pos_as_xyz
  1  'x, y, z'
loop_
 _atom_site_type_symbol
 _atom_site_label
 _atom_site_symmetry_multiplicity
 _atom_site_fract_x
 _atom_site_fract_y
 _atom_site_fract_z
 _atom_site_occupancy
  Be  Be0  1  0.85478000  0.60478000  0.25000000  1
  Be  Be1  1  0.64522000  0.89522000  0.75000000  1
  H  H2  1  0.85422000  0.25000000  0.10422000  1
  H  H3  1  0.64578000  0.75000000  0.39578000  1
  Cl  Cl4  1  0.25000000  0.96546000  0.71546000  1
  Cl  Cl5  1  0.75000000  0.53454000  0.78454000  1
