# generated using pymatgen
data_SiH4F2
_symmetry_space_group_name_H-M   'P 1'
_cell_length_a   4.58715502
_cell_length_b   4.58715502
_cell_length_c   5.09930728
_cell_angle_alpha   89.62302982
_cell_angle_beta   89.62302982
_cell_angle_gamma   78.49159081
_symmetry_Int_Tables_number   1
_chemical_formula_structural   SiH4F2
_chemical_formula_sum   'Si1 H4 F2'
_cell_volume   105.13857272
_cell_formula_units_Z   1
loop_
 _symmetry_equiv_pos_site_id
 _symmetry_equiv_pos_as_xyz
  1  'x, y, z'
loop_
 _atom_site_type_symbol
 _atom_site_label
 _atom_site_symmetry_multiplicity
 _atom_site_fract_x
 _atom_site_fract_y
 _atom_site_fract_z
 _atom_site_occupancy
  Si  Si0  1  0.98753812  0.01246188  0.50000000  1
  H  H1  1  0.11463585  0.88010301  0.74849632  1
  H  H2  1  0.11989699  0.88536415  0.25150368  1
  H  H3  1  0.52189900  0.37975162  0.02741251  1
  H  H4  1  0.62024838  0.47810100  0.97258749  1
  F  F5  1  0.99876376  0.36299612  0.50191270  1
  F  F6  1  0.63700388  0.00123624  0.49808730  1
