# generated using pymatgen
data_H6NF3
_symmetry_space_group_name_H-M   'P 1'
_cell_length_a   4.31272564
_cell_length_b   5.05186497
_cell_length_c   5.05534682
_cell_angle_alpha   60.99960996
_cell_angle_beta   86.93432109
_cell_angle_gamma   86.93232311
_symmetry_Int_Tables_number   1
_chemical_formula_structural   H6NF3
_chemical_formula_sum   'H6 N1 F3'
_cell_volume   96.14648263
_cell_formula_units_Z   1
loop_
 _symmetry_equiv_pos_site_id
 _symmetry_equiv_pos_as_xyz
  1  'x, y, z'
loop_
 _atom_site_type_symbol
 _atom_site_label
 _atom_site_symmetry_multiplicity
 _atom_site_fract_x
 _atom_site_fract_y
 _atom_site_fract_z
 _atom_site_occupancy
  H  H0  1  0.81513190  0.93177818  0.14239456  1
  H  H1  1  0.36631300  0.61832827  0.60687198  1
  H  H2  1  0.18467817  0.85743468  0.06862561  1
  H  H3  1  0.63362715  0.39343807  0.38128808  1
  H  H4  1  0.06791757  0.21898363  0.95876848  1
  H  H5  1  0.93212231  0.04064117  0.78133574  1
  N  N6  1  0.99993680  0.01223604  0.98772949  1
  F  F7  1  0.49980097  0.65969141  0.34060199  1
  F  F8  1  0.25466798  0.57322328  0.80632818  1
  F  F9  1  0.74576114  0.19420128  0.42602188  1
