# generated using pymatgen
data_KLiH2F4
_symmetry_space_group_name_H-M   'P 1'
_cell_length_a   5.18061862
_cell_length_b   5.18061862
_cell_length_c   5.18061862
_cell_angle_alpha   126.77358505
_cell_angle_beta   107.50900673
_cell_angle_gamma   95.76738221
_symmetry_Int_Tables_number   1
_chemical_formula_structural   KLiH2F4
_chemical_formula_sum   'K1 Li1 H2 F4'
_cell_volume   98.78831015
_cell_formula_units_Z   1
loop_
 _symmetry_equiv_pos_site_id
 _symmetry_equiv_pos_as_xyz
  1  'x, y, z'
loop_
 _atom_site_type_symbol
 _atom_site_label
 _atom_site_symmetry_multiplicity
 _atom_site_fract_x
 _atom_site_fract_y
 _atom_site_fract_z
 _atom_site_occupancy
  K  K0  1  0.00000000  0.00000000  0.00000000  1
  Li  Li1  1  0.50000000  0.50000000  0.00000000  1
  H  H2  1  0.32575282  0.82575282  0.50000000  1
  H  H3  1  0.67424718  0.17424718  0.50000000  1
  F  F4  1  0.21908488  0.03055133  0.60001674  1
  F  F5  1  0.78091512  0.38093186  0.81146645  1
  F  F6  1  0.43053459  0.61906814  0.39998326  1
  F  F7  1  0.56946541  0.96944867  0.18853355  1
