# generated using pymatgen
data_NaGaTe2
_symmetry_space_group_name_H-M   'P 1'
_cell_length_a   7.40383260
_cell_length_b   7.56421828
_cell_length_c   10.15974821
_cell_angle_alpha   90.00000000
_cell_angle_beta   90.00000000
_cell_angle_gamma   90.00000000
_symmetry_Int_Tables_number   1
_chemical_formula_structural   NaGaTe2
_chemical_formula_sum   'Na4 Ga4 Te8'
_cell_volume   568.98863060
_cell_formula_units_Z   4
loop_
 _symmetry_equiv_pos_site_id
 _symmetry_equiv_pos_as_xyz
  1  'x, y, z'
loop_
 _atom_site_type_symbol
 _atom_site_label
 _atom_site_symmetry_multiplicity
 _atom_site_fract_x
 _atom_site_fract_y
 _atom_site_fract_z
 _atom_site_occupancy
  Na  Na0  1  0.01650754  0.08100948  0.88512026  1
  Na  Na1  1  0.51650754  0.91899052  0.11487974  1
  Na  Na2  1  0.51650754  0.41899052  0.38512026  1
  Na  Na3  1  0.01650754  0.58100948  0.61487974  1
  Ga  Ga4  1  0.99601886  0.06248575  0.37360913  1
  Ga  Ga5  1  0.49601886  0.93751425  0.62639087  1
  Ga  Ga6  1  0.49601886  0.43751425  0.87360913  1
  Ga  Ga7  1  0.99601886  0.56248575  0.12639087  1
  Te  Te8  1  0.13938610  0.47142717  0.89690583  1
  Te  Te9  1  0.63938610  0.52857283  0.10309417  1
  Te  Te10  1  0.63938610  0.02857283  0.39690583  1
  Te  Te11  1  0.13938610  0.97142717  0.60309417  1
  Te  Te12  1  0.59788749  0.10076695  0.84494866  1
  Te  Te13  1  0.09788749  0.89923305  0.15505134  1
  Te  Te14  1  0.09788749  0.39923305  0.34494866  1
  Te  Te15  1  0.59788749  0.60076695  0.65505134  1
