# generated using pymatgen
data_SrLiAlF6
_symmetry_space_group_name_H-M   'P 1'
_cell_length_a   5.15560141
_cell_length_b   5.15560141
_cell_length_c   5.16822157
_cell_angle_alpha   90.00000000
_cell_angle_beta   90.00000000
_cell_angle_gamma   120.00000000
_symmetry_Int_Tables_number   1
_chemical_formula_structural   SrLiAlF6
_chemical_formula_sum   'Sr1 Li1 Al1 F6'
_cell_volume   118.96807192
_cell_formula_units_Z   1
loop_
 _symmetry_equiv_pos_site_id
 _symmetry_equiv_pos_as_xyz
  1  'x, y, z'
loop_
 _atom_site_type_symbol
 _atom_site_label
 _atom_site_symmetry_multiplicity
 _atom_site_fract_x
 _atom_site_fract_y
 _atom_site_fract_z
 _atom_site_occupancy
  Sr  Sr0  1  0.33333333  0.66666667  0.00000000  1
  Li  Li1  1  0.66666667  0.33333333  0.50000000  1
  Al  Al2  1  -0.00000000  0.00000000  0.50000000  1
  F  F3  1  0.30219793  0.28021852  0.29694773  1
  F  F4  1  0.97802058  0.69780207  0.29694773  1
  F  F5  1  0.71978148  0.02197942  0.29694773  1
  F  F6  1  0.71978148  0.69780207  0.70305227  1
  F  F7  1  0.97802058  0.28021852  0.70305227  1
  F  F8  1  0.30219793  0.02197942  0.70305227  1
