# generated using pymatgen
data_In(BiS2)3
_symmetry_space_group_name_H-M   'P 1'
_cell_length_a   8.91779802
_cell_length_b   8.91779802
_cell_length_c   6.72054741
_cell_angle_alpha   90.00000000
_cell_angle_beta   90.00000000
_cell_angle_gamma   102.47445115
_symmetry_Int_Tables_number   1
_chemical_formula_structural   In(BiS2)3
_chemical_formula_sum   'In2 Bi6 S12'
_cell_volume   521.84834826
_cell_formula_units_Z   2
loop_
 _symmetry_equiv_pos_site_id
 _symmetry_equiv_pos_as_xyz
  1  'x, y, z'
loop_
 _atom_site_type_symbol
 _atom_site_label
 _atom_site_symmetry_multiplicity
 _atom_site_fract_x
 _atom_site_fract_y
 _atom_site_fract_z
 _atom_site_occupancy
  In  In0  1  0.19686777  0.80313223  0.01314652  1
  In  In1  1  0.80313223  0.19686777  0.51314652  1
  Bi  Bi2  1  0.91761832  0.70730335  0.46934296  1
  Bi  Bi3  1  0.70730335  0.91761832  0.96934296  1
  Bi  Bi4  1  0.40059923  0.59940077  0.40885373  1
  Bi  Bi5  1  0.59940077  0.40059923  0.90885373  1
  Bi  Bi6  1  0.08238168  0.29269665  0.96934296  1
  Bi  Bi7  1  0.29269665  0.08238168  0.46934296  1
  S  S8  1  0.68699613  0.63520464  0.18971315  1
  S  S9  1  0.63520464  0.68699613  0.68971315  1
  S  S10  1  0.43992594  0.90003896  0.20463643  1
  S  S11  1  0.90003896  0.43992594  0.70463643  1
  S  S12  1  0.03755151  0.96244849  0.18422199  1
  S  S13  1  0.22009592  0.77990408  0.65175168  1
  S  S14  1  0.77990408  0.22009592  0.15175168  1
  S  S15  1  0.96244849  0.03755151  0.68422199  1
  S  S16  1  0.09996104  0.56007406  0.20463643  1
  S  S17  1  0.56007406  0.09996104  0.70463643  1
  S  S18  1  0.36479536  0.31300387  0.18971315  1
  S  S19  1  0.31300387  0.36479536  0.68971315  1
