# generated using pymatgen
data_GeO2
_symmetry_space_group_name_H-M   'P 1'
_cell_length_a   5.07020000
_cell_length_b   5.07020000
_cell_length_c   5.66740000
_cell_angle_alpha   90.00000000
_cell_angle_beta   90.00000000
_cell_angle_gamma   120.00000000
_symmetry_Int_Tables_number   1
_chemical_formula_structural   GeO2
_chemical_formula_sum   'Ge3 O6'
_cell_volume   126.17249160
_cell_formula_units_Z   3
loop_
 _symmetry_equiv_pos_site_id
 _symmetry_equiv_pos_as_xyz
  1  'x, y, z'
loop_
 _atom_site_type_symbol
 _atom_site_label
 _atom_site_symmetry_multiplicity
 _atom_site_fract_x
 _atom_site_fract_y
 _atom_site_fract_z
 _atom_site_occupancy
  Ge  Ge0  1  0.54110000  0.54110000  0.00000000  1.0
  Ge  Ge1  1  0.00000000  0.45890000  0.66666667  1.0
  Ge  Ge2  1  0.45890000  0.00000000  0.33333333  1.0
  O  O3  1  0.28800000  0.39900000  0.76540000  1.0
  O  O4  1  0.60100000  0.88900000  0.09873333  1.0
  O  O5  1  0.11100000  0.71200000  0.43206667  1.0
  O  O6  1  0.39900000  0.28800000  0.23460000  1.0
  O  O7  1  0.71200000  0.11100000  0.56793333  1.0
  O  O8  1  0.88900000  0.60100000  0.90126667  1.0
