# generated using pymatgen
data_Mg(GaTe2)2
_symmetry_space_group_name_H-M   'P 1'
_cell_length_a   7.43718439
_cell_length_b   7.43718439
_cell_length_c   7.43718439
_cell_angle_alpha   130.39311295
_cell_angle_beta   130.39311295
_cell_angle_gamma   72.77908647
_symmetry_Int_Tables_number   1
_chemical_formula_structural   Mg(GaTe2)2
_chemical_formula_sum   'Mg1 Ga2 Te4'
_cell_volume   233.10968804
_cell_formula_units_Z   1
loop_
 _symmetry_equiv_pos_site_id
 _symmetry_equiv_pos_as_xyz
  1  'x, y, z'
loop_
 _atom_site_type_symbol
 _atom_site_label
 _atom_site_symmetry_multiplicity
 _atom_site_fract_x
 _atom_site_fract_y
 _atom_site_fract_z
 _atom_site_occupancy
  Mg  Mg0  1  0.00000000  0.00000000  0.00000000  1
  Ga  Ga1  1  0.50000000  0.50000000  0.00000000  1
  Ga  Ga2  1  0.25000000  0.75000000  0.50000000  1
  Te  Te3  1  0.40913923  0.88623920  0.02203236  1
  Te  Te4  1  0.11376080  0.13579316  0.52290003  1
  Te  Te5  1  0.61289313  0.59086077  0.47709997  1
  Te  Te6  1  0.86420684  0.38710687  0.97796764  1
