# generated using pymatgen
data_SeS2
_symmetry_space_group_name_H-M   'P 1'
_cell_length_a   5.24704039
_cell_length_b   6.63214049
_cell_length_c   6.70288050
_cell_angle_alpha   100.36081001
_cell_angle_beta   88.19325999
_cell_angle_gamma   112.64933000
_symmetry_Int_Tables_number   1
_chemical_formula_structural   SeS2
_chemical_formula_sum   'Se2 S4'
_cell_volume   211.57255675
_cell_formula_units_Z   2
loop_
 _symmetry_equiv_pos_site_id
 _symmetry_equiv_pos_as_xyz
  1  'x, y, z'
loop_
 _atom_site_type_symbol
 _atom_site_label
 _atom_site_symmetry_multiplicity
 _atom_site_fract_x
 _atom_site_fract_y
 _atom_site_fract_z
 _atom_site_occupancy
  Se  Se0  1  0.92756000  0.32633000  0.10038000  1
  Se  Se1  1  0.92841000  0.32605000  0.45164000  1
  S  S2  1  0.31888000  0.60745000  0.58091000  1
  S  S3  1  0.79986000  0.60444000  0.06462000  1
  S  S4  1  0.19637000  0.85894000  0.71056000  1
  S  S5  1  0.16392000  0.85766000  0.02001000  1
