# generated using pymatgen
data_GaSeBr
_symmetry_space_group_name_H-M   'P 1'
_cell_length_a   3.90010241
_cell_length_b   5.64322902
_cell_length_c   8.62345122
_cell_angle_alpha   90.00000000
_cell_angle_beta   90.00000000
_cell_angle_gamma   90.00000000
_symmetry_Int_Tables_number   1
_chemical_formula_structural   GaSeBr
_chemical_formula_sum   'Ga2 Se2 Br2'
_cell_volume   189.79501338
_cell_formula_units_Z   2
loop_
 _symmetry_equiv_pos_site_id
 _symmetry_equiv_pos_as_xyz
  1  'x, y, z'
loop_
 _atom_site_type_symbol
 _atom_site_label
 _atom_site_symmetry_multiplicity
 _atom_site_fract_x
 _atom_site_fract_y
 _atom_site_fract_z
 _atom_site_occupancy
  Ga  Ga0  1  0.00000000  0.83847230  0.61079121  1
  Ga  Ga1  1  0.50000000  0.33847230  0.38920879  1
  Se  Se2  1  0.00000000  0.06622664  0.36744735  1
  Se  Se3  1  0.50000000  0.56622664  0.63255265  1
  Br  Br4  1  0.00000000  0.06151106  0.83654051  1
  Br  Br5  1  0.50000000  0.56151106  0.16345949  1
