# generated using pymatgen
data_AsS5Br
_symmetry_space_group_name_H-M   'P 1'
_cell_length_a   5.44077841
_cell_length_b   6.96846969
_cell_length_c   7.21048430
_cell_angle_alpha   100.16126609
_cell_angle_beta   96.34942175
_cell_angle_gamma   112.39873293
_symmetry_Int_Tables_number   1
_chemical_formula_structural   AsS5Br
_chemical_formula_sum   'As1 S5 Br1'
_cell_volume   243.99277251
_cell_formula_units_Z   1
loop_
 _symmetry_equiv_pos_site_id
 _symmetry_equiv_pos_as_xyz
  1  'x, y, z'
loop_
 _atom_site_type_symbol
 _atom_site_label
 _atom_site_symmetry_multiplicity
 _atom_site_fract_x
 _atom_site_fract_y
 _atom_site_fract_z
 _atom_site_occupancy
  As  As0  1  0.53577188  0.39170968  0.20536342  1
  S  S1  1  0.31806022  0.38774945  0.72003294  1
  S  S2  1  0.62917520  0.80950667  0.54158362  1
  S  S3  1  0.42716628  0.68210536  0.26088425  1
  S  S4  1  0.63915280  0.39361767  0.90321431  1
  S  S5  1  0.35972326  0.69445357  0.71770727  1
  Br  Br6  1  0.09095137  0.11015661  0.12051418  1
