# generated using pymatgen
data_GaHSe
_symmetry_space_group_name_H-M   'P 1'
_cell_length_a   6.61113190
_cell_length_b   6.61113190
_cell_length_c   5.14346000
_cell_angle_alpha   88.19335202
_cell_angle_beta   88.19335202
_cell_angle_gamma   33.61951264
_symmetry_Int_Tables_number   1
_chemical_formula_structural   GaHSe
_chemical_formula_sum   'Ga2 H2 Se2'
_cell_volume   124.40172631
_cell_formula_units_Z   2
loop_
 _symmetry_equiv_pos_site_id
 _symmetry_equiv_pos_as_xyz
  1  'x, y, z'
loop_
 _atom_site_type_symbol
 _atom_site_label
 _atom_site_symmetry_multiplicity
 _atom_site_fract_x
 _atom_site_fract_y
 _atom_site_fract_z
 _atom_site_occupancy
  Ga  Ga0  1  0.79790000  0.79790000  0.06224000  1
  Ga  Ga1  1  0.46470000  0.46470000  0.54910000  1
  H  H2  1  0.55901000  0.55901000  0.34746000  1
  H  H3  1  0.70362000  0.70362000  0.87601000  1
  Se  Se4  1  0.28662000  0.28662000  0.36768000  1
  Se  Se5  1  0.97619000  0.97619000  0.85254000  1
