# generated using pymatgen
data_LiMg2ReN4
_symmetry_space_group_name_H-M   'P 1'
_cell_length_a   5.30283661
_cell_length_b   5.74351024
_cell_length_c   6.82524556
_cell_angle_alpha   90.00000000
_cell_angle_beta   90.00000000
_cell_angle_gamma   90.00000000
_symmetry_Int_Tables_number   1
_chemical_formula_structural   LiMg2ReN4
_chemical_formula_sum   'Li2 Mg4 Re2 N8'
_cell_volume   207.87579672
_cell_formula_units_Z   2
loop_
 _symmetry_equiv_pos_site_id
 _symmetry_equiv_pos_as_xyz
  1  'x, y, z'
loop_
 _atom_site_type_symbol
 _atom_site_label
 _atom_site_symmetry_multiplicity
 _atom_site_fract_x
 _atom_site_fract_y
 _atom_site_fract_z
 _atom_site_occupancy
  Li  Li0  1  0.99013259  0.15786115  0.50000000  1
  Li  Li1  1  0.49013259  0.84213885  0.00000000  1
  Mg  Mg2  1  0.49370812  0.32585735  0.25322066  1
  Mg  Mg3  1  0.49370812  0.32585735  0.74677934  1
  Mg  Mg4  1  0.99370812  0.67414265  0.75322066  1
  Mg  Mg5  1  0.99370812  0.67414265  0.24677934  1
  Re  Re6  1  0.50094283  0.82601746  0.50000000  1
  Re  Re7  1  0.00094283  0.17398253  0.00000000  1
  N  N8  1  0.34477694  0.18393369  0.00000000  1
  N  N9  1  0.84477694  0.81606631  0.50000000  1
  N  N10  1  0.39755451  0.13129904  0.50000000  1
  N  N11  1  0.89755451  0.86870096  0.00000000  1
  N  N12  1  0.38956066  0.67704109  0.72179763  1
  N  N13  1  0.88956066  0.32295892  0.22179763  1
  N  N14  1  0.88956066  0.32295892  0.77820237  1
  N  N15  1  0.38956066  0.67704109  0.27820237  1
