# generated using pymatgen
data_HfCd(BiO3)2
_symmetry_space_group_name_H-M   'P 1'
_cell_length_a   6.05348410
_cell_length_b   6.05348410
_cell_length_c   6.05348410
_cell_angle_alpha   58.35804389
_cell_angle_beta   58.35804389
_cell_angle_gamma   58.35804389
_symmetry_Int_Tables_number   1
_chemical_formula_structural   HfCd(BiO3)2
_chemical_formula_sum   'Hf1 Cd1 Bi2 O6'
_cell_volume   150.95966774
_cell_formula_units_Z   1
loop_
 _symmetry_equiv_pos_site_id
 _symmetry_equiv_pos_as_xyz
  1  'x, y, z'
loop_
 _atom_site_type_symbol
 _atom_site_label
 _atom_site_symmetry_multiplicity
 _atom_site_fract_x
 _atom_site_fract_y
 _atom_site_fract_z
 _atom_site_occupancy
  Hf  Hf0  1  0.68744888  0.68744888  0.68744888  1
  Cd  Cd1  1  0.19733773  0.19733773  0.19733773  1
  Bi  Bi2  1  0.47522884  0.47522884  0.47522884  1
  Bi  Bi3  1  0.97662864  0.97662864  0.97662864  1
  O  O4  1  0.01721881  0.81757545  0.40707242  1
  O  O5  1  0.40707242  0.01721881  0.81757545  1
  O  O6  1  0.81757545  0.40707242  0.01721881  1
  O  O7  1  0.86545088  0.33224918  0.56219954  1
  O  O8  1  0.56219954  0.86545088  0.33224918  1
  O  O9  1  0.33224918  0.56219954  0.86545088  1
