# generated using pymatgen
data_Hg(PH2)2
_symmetry_space_group_name_H-M   'P 1'
_cell_length_a   5.31461215
_cell_length_b   7.43368937
_cell_length_c   7.50779228
_cell_angle_alpha   83.13961430
_cell_angle_beta   110.65658182
_cell_angle_gamma   109.89726310
_symmetry_Int_Tables_number   1
_chemical_formula_structural   Hg(PH2)2
_chemical_formula_sum   'Hg2 P4 H8'
_cell_volume   260.97482518
_cell_formula_units_Z   2
loop_
 _symmetry_equiv_pos_site_id
 _symmetry_equiv_pos_as_xyz
  1  'x, y, z'
loop_
 _atom_site_type_symbol
 _atom_site_label
 _atom_site_symmetry_multiplicity
 _atom_site_fract_x
 _atom_site_fract_y
 _atom_site_fract_z
 _atom_site_occupancy
  Hg  Hg0  1  0.24224194  0.49613457  0.49151283  1
  Hg  Hg1  1  0.00024055  0.99570129  0.00794041  1
  P  P2  1  0.16164104  0.49990795  0.99907835  1
  P  P3  1  0.58747094  0.49911677  0.99914724  1
  P  P4  1  0.41258383  0.00028424  0.50095440  1
  P  P5  1  0.83845267  0.99951098  0.50092666  1
  H  H6  1  0.70831778  0.50781875  0.20266891  1
  H  H7  1  0.50609248  0.29442593  0.99707938  1
  H  H8  1  0.04163835  0.49718514  0.79543991  1
  H  H9  1  0.75907873  0.79483027  0.50288022  1
  H  H10  1  0.49191375  0.20496776  0.49357454  1
  H  H11  1  0.24845699  0.70458320  0.00681752  1
  H  H12  1  0.75638633  0.00804887  0.29740557  1
  H  H13  1  0.49548663  0.99748128  0.70457508  1
