# generated using pymatgen
data_AlHSe2
_symmetry_space_group_name_H-M   'P 1'
_cell_length_a   5.57211583
_cell_length_b   6.18427996
_cell_length_c   7.01720716
_cell_angle_alpha   116.11284588
_cell_angle_beta   113.37335864
_cell_angle_gamma   90.00056739
_symmetry_Int_Tables_number   1
_chemical_formula_structural   AlHSe2
_chemical_formula_sum   'Al2 H2 Se4'
_cell_volume   194.78590316
_cell_formula_units_Z   2
loop_
 _symmetry_equiv_pos_site_id
 _symmetry_equiv_pos_as_xyz
  1  'x, y, z'
loop_
 _atom_site_type_symbol
 _atom_site_label
 _atom_site_symmetry_multiplicity
 _atom_site_fract_x
 _atom_site_fract_y
 _atom_site_fract_z
 _atom_site_occupancy
  Al  Al0  1  0.65736629  0.39869131  0.82016205  1
  Al  Al1  1  0.65740390  0.89870151  0.82016324  1
  H  H2  1  0.06060306  0.10746733  0.73760213  1
  H  H3  1  0.17172239  0.60751235  0.73766027  1
  Se  Se4  1  0.76096090  0.01967899  0.56182057  1
  Se  Se5  1  0.50896031  0.25020831  0.02346084  1
  Se  Se6  1  0.00892961  0.75023012  0.02349804  1
  Se  Se7  1  0.29567220  0.51969249  0.56185058  1
