# generated using pymatgen
data_CaHf(BiO3)2
_symmetry_space_group_name_H-M   'P 1'
_cell_length_a   6.07724888
_cell_length_b   6.07724888
_cell_length_c   6.07724888
_cell_angle_alpha   58.26707498
_cell_angle_beta   58.26707498
_cell_angle_gamma   58.26707498
_symmetry_Int_Tables_number   1
_chemical_formula_structural   CaHf(BiO3)2
_chemical_formula_sum   'Ca1 Hf1 Bi2 O6'
_cell_volume   152.41086525
_cell_formula_units_Z   1
loop_
 _symmetry_equiv_pos_site_id
 _symmetry_equiv_pos_as_xyz
  1  'x, y, z'
loop_
 _atom_site_type_symbol
 _atom_site_label
 _atom_site_symmetry_multiplicity
 _atom_site_fract_x
 _atom_site_fract_y
 _atom_site_fract_z
 _atom_site_occupancy
  Ca  Ca0  1  0.19270702  0.19270702  0.19270702  1
  Hf  Hf1  1  0.68739680  0.68739680  0.68739680  1
  Bi  Bi2  1  0.47720337  0.47720337  0.47720337  1
  Bi  Bi3  1  0.97557337  0.97557337  0.97557337  1
  O  O4  1  0.01619575  0.81974550  0.40768031  1
  O  O5  1  0.40768031  0.01619575  0.81974550  1
  O  O6  1  0.81974550  0.40768031  0.01619575  1
  O  O7  1  0.86545505  0.33161556  0.56498966  1
  O  O8  1  0.56498966  0.86545505  0.33161556  1
  O  O9  1  0.33161556  0.56498966  0.86545505  1
