# generated using pymatgen
data_KNbMoO6
_symmetry_space_group_name_H-M   'P 1'
_cell_length_a   5.35763361
_cell_length_b   5.35763361
_cell_length_c   5.94974272
_cell_angle_alpha   90.00000000
_cell_angle_beta   90.00000000
_cell_angle_gamma   120.00000000
_symmetry_Int_Tables_number   1
_chemical_formula_structural   KNbMoO6
_chemical_formula_sum   'K1 Nb1 Mo1 O6'
_cell_volume   147.90226969
_cell_formula_units_Z   1
loop_
 _symmetry_equiv_pos_site_id
 _symmetry_equiv_pos_as_xyz
  1  'x, y, z'
loop_
 _atom_site_type_symbol
 _atom_site_label
 _atom_site_symmetry_multiplicity
 _atom_site_fract_x
 _atom_site_fract_y
 _atom_site_fract_z
 _atom_site_occupancy
  K  K0  1  0.66666667  0.33333333  0.00453467  1
  Nb  Nb1  1  0.00000000  -0.00000000  0.45077863  1
  Mo  Mo2  1  0.33333333  0.66666667  0.54269391  1
  O  O3  1  0.06389862  0.33786942  0.68882237  1
  O  O4  1  0.06859805  0.72025129  0.31187881  1
  O  O5  1  0.65165325  0.93140195  0.31187881  1
  O  O6  1  0.27974871  0.34834675  0.31187881  1
  O  O7  1  0.66213058  0.72602919  0.68882237  1
  O  O8  1  0.27397081  0.93610138  0.68882237  1
