# generated using pymatgen
data_H3SeI
_symmetry_space_group_name_H-M   'P 1'
_cell_length_a   5.36631349
_cell_length_b   5.72953573
_cell_length_c   7.95158332
_cell_angle_alpha   90.00000000
_cell_angle_beta   90.00000000
_cell_angle_gamma   90.00000000
_symmetry_Int_Tables_number   1
_chemical_formula_structural   H3SeI
_chemical_formula_sum   'H6 Se2 I2'
_cell_volume   244.48323608
_cell_formula_units_Z   2
loop_
 _symmetry_equiv_pos_site_id
 _symmetry_equiv_pos_as_xyz
  1  'x, y, z'
loop_
 _atom_site_type_symbol
 _atom_site_label
 _atom_site_symmetry_multiplicity
 _atom_site_fract_x
 _atom_site_fract_y
 _atom_site_fract_z
 _atom_site_occupancy
  H  H0  1  0.68601695  0.00000000  0.43515941  1
  H  H1  1  0.39802523  0.69455337  0.75566683  1
  H  H2  1  0.89802523  0.19455337  0.24433316  1
  H  H3  1  0.18601695  0.50000000  0.56484060  1
  H  H4  1  0.89802523  0.80544663  0.24433316  1
  H  H5  1  0.39802523  0.30544663  0.75566683  1
  Se  Se6  1  0.19659962  0.50000000  0.76084247  1
  Se  Se7  1  0.69659962  0.00000000  0.23915754  1
  I  I8  1  0.19940097  0.50000000  0.26846610  1
  I  I9  1  0.69940097  0.00000000  0.73153391  1
