# generated using pymatgen
data_Cs2GaH6Au
_symmetry_space_group_name_H-M   'P 1'
_cell_length_a   6.34531410
_cell_length_b   6.34564531
_cell_length_c   6.50130499
_cell_angle_alpha   115.57877038
_cell_angle_beta   115.56598997
_cell_angle_gamma   90.22146714
_symmetry_Int_Tables_number   1
_chemical_formula_structural   Cs2GaH6Au
_chemical_formula_sum   'Cs2 Ga1 H6 Au1'
_cell_volume   207.10079937
_cell_formula_units_Z   1
loop_
 _symmetry_equiv_pos_site_id
 _symmetry_equiv_pos_as_xyz
  1  'x, y, z'
loop_
 _atom_site_type_symbol
 _atom_site_label
 _atom_site_symmetry_multiplicity
 _atom_site_fract_x
 _atom_site_fract_y
 _atom_site_fract_z
 _atom_site_occupancy
  Cs  Cs0  1  0.31926355  0.81212622  0.56434642  1
  Cs  Cs1  1  0.81290767  0.31886400  0.56502452  1
  Ga  Ga2  1  0.08785062  0.08738000  0.08138209  1
  H  H3  1  0.81647333  0.11311222  0.98130056  1
  H  H4  1  0.77828173  0.77745331  0.46697535  1
  H  H5  1  0.11344635  0.81595676  0.98126784  1
  H  H6  1  0.22403848  0.22344586  0.99849153  1
  H  H7  1  0.22103726  0.22056374  0.39416633  1
  H  H8  1  0.49427680  0.49417519  0.82175098  1
  Au  Au9  1  0.63636920  0.63589468  0.14323737  1
