# generated using pymatgen
data_Rb2GaH6Au
_symmetry_space_group_name_H-M   'P 1'
_cell_length_a   6.05545904
_cell_length_b   6.05573007
_cell_length_c   6.19692435
_cell_angle_alpha   114.49895267
_cell_angle_beta   114.49062670
_cell_angle_gamma   89.94163060
_symmetry_Int_Tables_number   1
_chemical_formula_structural   Rb2GaH6Au
_chemical_formula_sum   'Rb2 Ga1 H6 Au1'
_cell_volume   184.12899481
_cell_formula_units_Z   1
loop_
 _symmetry_equiv_pos_site_id
 _symmetry_equiv_pos_as_xyz
  1  'x, y, z'
loop_
 _atom_site_type_symbol
 _atom_site_label
 _atom_site_symmetry_multiplicity
 _atom_site_fract_x
 _atom_site_fract_y
 _atom_site_fract_z
 _atom_site_occupancy
  Rb  Rb0  1  0.18318827  0.67888060  0.43032611  1
  Rb  Rb1  1  0.67833489  0.18368883  0.43027878  1
  Ga  Ga2  1  0.91985335  0.92029513  0.92210520  1
  H  H3  1  0.20086320  0.88874422  0.01841965  1
  H  H4  1  0.21777625  0.21820248  0.52318618  1
  H  H5  1  0.88834107  0.20132619  0.01849804  1
  H  H6  1  0.49332548  0.49390706  0.18362791  1
  H  H7  1  0.78150648  0.78197869  0.60152377  1
  H  H8  1  0.78280088  0.78328723  0.01999222  1
  Au  Au9  1  0.35503913  0.35569158  0.85409915  1
