# generated using pymatgen
data_SiO2
_symmetry_space_group_name_H-M   'P 1'
_cell_length_a   5.04820000
_cell_length_b   6.65680000
_cell_length_c   4.93710000
_cell_angle_alpha   90.00000000
_cell_angle_beta   90.00000000
_cell_angle_gamma   90.00000000
_symmetry_Int_Tables_number   1
_chemical_formula_structural   SiO2
_chemical_formula_sum   'Si4 O8'
_cell_volume   165.91054325
_cell_formula_units_Z   4
loop_
 _symmetry_equiv_pos_site_id
 _symmetry_equiv_pos_as_xyz
  1  'x, y, z'
loop_
 _atom_site_type_symbol
 _atom_site_label
 _atom_site_symmetry_multiplicity
 _atom_site_fract_x
 _atom_site_fract_y
 _atom_site_fract_z
 _atom_site_occupancy
  Si  Si0  1  0.05215000  0.62500000  0.00000000  1.0
  Si  Si1  1  0.44785000  0.12500000  0.50000000  1.0
  Si  Si2  1  0.94785000  0.37500000  0.50000000  1.0
  Si  Si3  1  0.55215000  0.87500000  0.00000000  1.0
  O  O4  1  0.64569000  0.30999000  0.43150000  1.0
  O  O5  1  0.35431000  0.69001000  0.93150000  1.0
  O  O6  1  0.14569000  0.19001000  0.43150000  1.0
  O  O7  1  0.52858000  0.93150000  0.31851000  1.0
  O  O8  1  0.97142000  0.43150000  0.81851000  1.0
  O  O9  1  0.85431000  0.80999000  0.93150000  1.0
  O  O10  1  0.02858000  0.56850000  0.31851000  1.0
  O  O11  1  0.47142000  0.06850000  0.81851000  1.0
