# generated using pymatgen
data_Zr3SnO8
_symmetry_space_group_name_H-M   'P 1'
_cell_length_a   5.18974784
_cell_length_b   5.18974784
_cell_length_c   5.19002401
_cell_angle_alpha   90.00000000
_cell_angle_beta   90.00000000
_cell_angle_gamma   90.02269717
_symmetry_Int_Tables_number   1
_chemical_formula_structural   Zr3SnO8
_chemical_formula_sum   'Zr3 Sn1 O8'
_cell_volume   139.78541085
_cell_formula_units_Z   1
loop_
 _symmetry_equiv_pos_site_id
 _symmetry_equiv_pos_as_xyz
  1  'x, y, z'
loop_
 _atom_site_type_symbol
 _atom_site_label
 _atom_site_symmetry_multiplicity
 _atom_site_fract_x
 _atom_site_fract_y
 _atom_site_fract_z
 _atom_site_occupancy
  Zr  Zr0  1  0.50000000  -0.00000000  0.25003634  1
  Zr  Zr1  1  0.00000000  0.00000000  0.75001909  1
  Zr  Zr2  1  -0.00000000  0.50000000  0.25003634  1
  Sn  Sn3  1  0.50000000  0.50000000  0.75026241  1
  O  O4  1  0.27775228  0.72224771  0.97202810  1
  O  O5  1  0.21065825  0.21065825  0.03946124  1
  O  O6  1  0.21042934  0.78957066  0.46044662  1
  O  O7  1  0.27795250  0.27795250  0.52788638  1
  O  O8  1  0.72204750  0.72204750  0.52788638  1
  O  O9  1  0.78957066  0.21042934  0.46044662  1
  O  O10  1  0.72224771  0.27775228  0.97202810  1
  O  O11  1  0.78934175  0.78934175  0.03946124  1
