# generated using pymatgen
data_HF
_symmetry_space_group_name_H-M   'P 1'
_cell_length_a   8.38712761
_cell_length_b   8.38712761
_cell_length_c   16.78245438
_cell_angle_alpha   90.00000000
_cell_angle_beta   90.00000000
_cell_angle_gamma   120.00000000
_symmetry_Int_Tables_number   1
_chemical_formula_structural   HF
_chemical_formula_sum   'H10 F10'
_cell_volume   1022.38061962
_cell_formula_units_Z   10
loop_
 _symmetry_equiv_pos_site_id
 _symmetry_equiv_pos_as_xyz
  1  'x, y, z'
loop_
 _atom_site_type_symbol
 _atom_site_label
 _atom_site_symmetry_multiplicity
 _atom_site_fract_x
 _atom_site_fract_y
 _atom_site_fract_z
 _atom_site_occupancy
  H  H0  1  0.62572748  0.86578756  0.50626843  1
  H  H1  1  0.13421244  0.75993992  0.50626843  1
  H  H2  1  0.24006008  0.37427252  0.50626843  1
  H  H3  1  0.86578756  0.62572748  0.50626843  1
  H  H4  1  0.75993992  0.13421244  0.50626843  1
  H  H5  1  0.37427252  0.24006008  0.50626843  1
  H  H6  1  0.33594139  0.00000000  0.47183084  1
  H  H7  1  0.00000000  0.33594139  0.47183084  1
  H  H8  1  0.66405861  0.66405861  0.47183084  1
  H  H9  1  0.00000000  0.00000000  0.57599195  1
  F  F10  1  0.57914893  0.73727567  0.46978256  1
  F  F11  1  0.26272433  0.84187326  0.46978256  1
  F  F12  1  0.15812674  0.42085107  0.46978256  1
  F  F13  1  0.73727567  0.57914893  0.46978256  1
  F  F14  1  0.84187326  0.26272433  0.46978256  1
  F  F15  1  0.42085107  0.15812674  0.46978256  1
  F  F16  1  0.67143633  0.00000000  0.54409972  1
  F  F17  1  0.00000000  0.67143633  0.54409972  1
  F  F18  1  0.32856367  0.32856367  0.54409972  1
  F  F19  1  0.00000000  0.00000000  0.51991076  1
