# generated using pymatgen
data_KLi2NbO4
_symmetry_space_group_name_H-M   'P 1'
_cell_length_a   5.36561086
_cell_length_b   5.36561086
_cell_length_c   5.36561086
_cell_angle_alpha   118.27388484
_cell_angle_beta   118.27388484
_cell_angle_gamma   93.01665933
_symmetry_Int_Tables_number   1
_chemical_formula_structural   KLi2NbO4
_chemical_formula_sum   'K1 Li2 Nb1 O4'
_cell_volume   111.91219141
_cell_formula_units_Z   1
loop_
 _symmetry_equiv_pos_site_id
 _symmetry_equiv_pos_as_xyz
  1  'x, y, z'
loop_
 _atom_site_type_symbol
 _atom_site_label
 _atom_site_symmetry_multiplicity
 _atom_site_fract_x
 _atom_site_fract_y
 _atom_site_fract_z
 _atom_site_occupancy
  K  K0  1  0.00000000  0.00000000  0.00000000  1
  Li  Li1  1  0.25000000  0.75000000  0.50000000  1
  Li  Li2  1  0.75000000  0.25000000  0.50000000  1
  Nb  Nb3  1  0.50000000  0.50000000  -0.00000000  1
  O  O4  1  0.84603047  0.84603047  0.39038999  1
  O  O5  1  0.54435952  0.15396952  -0.00000000  1
  O  O6  1  0.45564048  0.45564048  0.60961001  1
  O  O7  1  0.15396952  0.54435952  -0.00000000  1
