# generated using pymatgen
data_GeH4
_symmetry_space_group_name_H-M   'P 1'
_cell_length_a   4.28970172
_cell_length_b   4.52404676
_cell_length_c   17.50951095
_cell_angle_alpha   90.00000000
_cell_angle_beta   90.00000000
_cell_angle_gamma   118.11236531
_symmetry_Int_Tables_number   1
_chemical_formula_structural   GeH4
_chemical_formula_sum   'Ge1 H4'
_cell_volume   299.71548827
_cell_formula_units_Z   1
loop_
 _symmetry_equiv_pos_site_id
 _symmetry_equiv_pos_as_xyz
  1  'x, y, z'
loop_
 _atom_site_type_symbol
 _atom_site_label
 _atom_site_symmetry_multiplicity
 _atom_site_fract_x
 _atom_site_fract_y
 _atom_site_fract_z
 _atom_site_occupancy
  Ge  Ge0  1  0.10026341  0.62236611  0.50000216  1
  H  H1  1  0.89591382  0.62497021  0.42839525  1
  H  H2  1  0.89504090  0.62200723  0.57171798  1
  H  H3  1  0.15146089  0.30921381  0.49959694  1
  H  H4  1  0.46442796  0.93336946  0.50028767  1
