# generated using pymatgen
data_H4NCl
_symmetry_space_group_name_H-M   'P 1'
_cell_length_a   4.80984869
_cell_length_b   4.80984869
_cell_length_c   5.05493360
_cell_angle_alpha   58.30586314
_cell_angle_beta   58.30586314
_cell_angle_gamma   67.97246017
_symmetry_Int_Tables_number   1
_chemical_formula_structural   H4NCl
_chemical_formula_sum   'H4 N1 Cl1'
_cell_volume   83.86843975
_cell_formula_units_Z   1
loop_
 _symmetry_equiv_pos_site_id
 _symmetry_equiv_pos_as_xyz
  1  'x, y, z'
loop_
 _atom_site_type_symbol
 _atom_site_label
 _atom_site_symmetry_multiplicity
 _atom_site_fract_x
 _atom_site_fract_y
 _atom_site_fract_z
 _atom_site_occupancy
  H  H0  1  0.16018002  0.83985112  0.84688868  1
  H  H1  1  0.83985112  0.16018002  0.84688868  1
  H  H2  1  0.14103188  0.14103188  0.93653795  1
  H  H3  1  0.85881613  0.85881613  0.21856906  1
  N  N4  1  0.99997327  0.99997327  0.96529482  1
  Cl  Cl5  1  0.50015740  0.50015740  0.63683160  1
