# generated using pymatgen
data_BH5NCl
_symmetry_space_group_name_H-M   'P 1'
_cell_length_a   4.57763926
_cell_length_b   4.57763926
_cell_length_c   8.45487027
_cell_angle_alpha   90.00000000
_cell_angle_beta   90.00000000
_cell_angle_gamma   93.00595380
_symmetry_Int_Tables_number   1
_chemical_formula_structural   BH5NCl
_chemical_formula_sum   'B2 H10 N2 Cl2'
_cell_volume   176.92618701
_cell_formula_units_Z   2
loop_
 _symmetry_equiv_pos_site_id
 _symmetry_equiv_pos_as_xyz
  1  'x, y, z'
loop_
 _atom_site_type_symbol
 _atom_site_label
 _atom_site_symmetry_multiplicity
 _atom_site_fract_x
 _atom_site_fract_y
 _atom_site_fract_z
 _atom_site_occupancy
  B  B0  1  0.13753293  0.13753293  0.52187080  1
  B  B1  1  0.86246707  0.86246707  0.02187080  1
  H  H2  1  0.79773763  0.79773763  0.54683463  1
  H  H3  1  0.20226237  0.20226237  0.04683463  1
  H  H4  1  0.99667236  0.74494048  0.38659940  1
  H  H5  1  0.74494048  0.99667236  0.38659940  1
  H  H6  1  0.00332764  0.25505952  0.88659940  1
  H  H7  1  0.25505952  0.00332764  0.88659940  1
  H  H8  1  0.01234814  0.31810819  0.59653257  1
  H  H9  1  0.31810819  0.01234814  0.59653257  1
  H  H10  1  0.98765186  0.68189181  0.09653257  1
  H  H11  1  0.68189181  0.98765186  0.09653257  1
  N  N12  1  0.90315771  0.90315771  0.45376049  1
  N  N13  1  0.09684229  0.09684229  0.95376049  1
  Cl  Cl14  1  0.32779622  0.32779622  0.34601015  1
  Cl  Cl15  1  0.67220378  0.67220378  0.84601015  1
