# generated using pymatgen
data_SiO2
_symmetry_space_group_name_H-M   'P 1'
_cell_length_a   5.05186103
_cell_length_b   5.05199957
_cell_length_c   8.27000000
_cell_angle_alpha   90.00000000
_cell_angle_beta   90.00000000
_cell_angle_gamma   120.00090711
_symmetry_Int_Tables_number   1
_chemical_formula_structural   SiO2
_chemical_formula_sum   'Si4 O8'
_cell_volume   182.78765932
_cell_formula_units_Z   4
loop_
 _symmetry_equiv_pos_site_id
 _symmetry_equiv_pos_as_xyz
  1  'x, y, z'
loop_
 _atom_site_type_symbol
 _atom_site_label
 _atom_site_symmetry_multiplicity
 _atom_site_fract_x
 _atom_site_fract_y
 _atom_site_fract_z
 _atom_site_occupancy
  Si  Si8  1  0.33333333  0.66666667  0.93760000  1.0
  Si  Si9  1  0.66666667  0.33333333  0.43760000  1.0
  Si  Si10  1  0.33333333  0.66666667  0.56240000  1.0
  Si  Si11  1  0.66666667  0.33333333  0.06240000  1.0
  O  O0  1  0.00000000  0.59200000  0.00000000  1.0
  O  O1  1  0.56200000  0.03700000  0.54000000  1.0
  O  O2  1  0.67200000  0.25900000  0.25000000  1.0
  O  O3  1  0.43800000  0.47500000  0.46000000  1.0
  O  O4  1  0.32800000  0.58700000  0.75000000  1.0
  O  O5  1  0.43800000  0.47500000  0.04000000  1.0
  O  O6  1  0.00000000  0.59200000  0.50000000  1.0
  O  O7  1  0.56200000  0.03700000  0.96000000  1.0
