# generated using pymatgen
data_BH8N
_symmetry_space_group_name_H-M   'P 1'
_cell_length_a   4.11135145
_cell_length_b   4.19725430
_cell_length_c   8.37562047
_cell_angle_alpha   90.00000000
_cell_angle_beta   90.00000000
_cell_angle_gamma   90.00000000
_symmetry_Int_Tables_number   1
_chemical_formula_structural   BH8N
_chemical_formula_sum   'B2 H16 N2'
_cell_volume   144.53295282
_cell_formula_units_Z   2
loop_
 _symmetry_equiv_pos_site_id
 _symmetry_equiv_pos_as_xyz
  1  'x, y, z'
loop_
 _atom_site_type_symbol
 _atom_site_label
 _atom_site_symmetry_multiplicity
 _atom_site_fract_x
 _atom_site_fract_y
 _atom_site_fract_z
 _atom_site_occupancy
  B  B0  1  0.49119752  0.50601526  0.75000000  1
  B  B1  1  0.49119752  0.49398474  0.25000000  1
  H  H2  1  0.93326968  0.86947046  0.42338527  1
  H  H3  1  0.93326968  0.13052954  0.57661473  1
  H  H4  1  0.93326968  0.86947046  0.07661473  1
  H  H5  1  0.93326968  0.13052954  0.92338527  1
  H  H6  1  0.22520695  0.15400378  0.43379474  1
  H  H7  1  0.22520695  0.84599622  0.56620526  1
  H  H8  1  0.22520695  0.15400378  0.06620526  1
  H  H9  1  0.22520695  0.84599622  0.93379474  1
  H  H10  1  0.58266531  0.64878386  0.86943011  1
  H  H11  1  0.58266531  0.35121614  0.13056989  1
  H  H12  1  0.58266531  0.64878386  0.63056989  1
  H  H13  1  0.58266531  0.35121614  0.36943011  1
  H  H14  1  0.60730588  0.23541164  0.75000000  1
  H  H15  1  0.60730588  0.76458836  0.25000000  1
  H  H16  1  0.19280611  0.48431020  0.75000000  1
  H  H17  1  0.19280611  0.51568980  0.25000000  1
  N  N18  1  0.07840660  0.00000000  0.50000000  1
  N  N19  1  0.07840660  0.00000000  0.00000000  1
