# generated using pymatgen
data_BH3O
_symmetry_space_group_name_H-M   'P 1'
_cell_length_a   4.18395948
_cell_length_b   4.44425588
_cell_length_c   5.16456167
_cell_angle_alpha   70.42884403
_cell_angle_beta   89.97041835
_cell_angle_gamma   89.97233899
_symmetry_Int_Tables_number   1
_chemical_formula_structural   BH3O
_chemical_formula_sum   'B2 H6 O2'
_cell_volume   90.48468768
_cell_formula_units_Z   2
loop_
 _symmetry_equiv_pos_site_id
 _symmetry_equiv_pos_as_xyz
  1  'x, y, z'
loop_
 _atom_site_type_symbol
 _atom_site_label
 _atom_site_symmetry_multiplicity
 _atom_site_fract_x
 _atom_site_fract_y
 _atom_site_fract_z
 _atom_site_occupancy
  B  B0  1  0.97812044  0.32646173  0.78626417  1
  B  B1  1  0.47799994  0.02632712  0.11527035  1
  H  H2  1  0.71157100  0.45850448  0.08823086  1
  H  H3  1  0.60190626  0.76590262  0.15680540  1
  H  H4  1  0.85673565  0.29354828  0.58579253  1
  H  H5  1  0.21188730  0.89414675  0.81329506  1
  H  H6  1  0.10196934  0.58679091  0.74497760  1
  H  H7  1  0.35623755  0.05953842  0.31559542  1
  O  O8  1  0.22999326  0.06873369  0.88941828  1
  O  O9  1  0.72982725  0.28393200  0.01205933  1
