# generated using pymatgen
data_Li2AlBO4
_symmetry_space_group_name_H-M   'P 1'
_cell_length_a   4.84044296
_cell_length_b   4.84044296
_cell_length_c   4.84044296
_cell_angle_alpha   126.17203186
_cell_angle_beta   126.17203186
_cell_angle_gamma   79.60557846
_symmetry_Int_Tables_number   1
_chemical_formula_structural   Li2AlBO4
_chemical_formula_sum   'Li2 Al1 B1 O4'
_cell_volume   71.40831466
_cell_formula_units_Z   1
loop_
 _symmetry_equiv_pos_site_id
 _symmetry_equiv_pos_as_xyz
  1  'x, y, z'
loop_
 _atom_site_type_symbol
 _atom_site_label
 _atom_site_symmetry_multiplicity
 _atom_site_fract_x
 _atom_site_fract_y
 _atom_site_fract_z
 _atom_site_occupancy
  Li  Li0  1  0.25000000  0.75000000  0.50000000  1
  Li  Li1  1  0.00000000  0.00000000  0.00000000  1
  Al  Al2  1  0.75000000  0.25000000  0.50000000  1
  B  B3  1  0.50000000  0.50000000  -0.00000000  1
  O  O4  1  0.16721708  0.56421405  0.96126211  1
  O  O5  1  0.43578595  0.39704806  0.60300303  1
  O  O6  1  0.79404503  0.83278292  0.39699697  1
  O  O7  1  0.60295194  0.20595497  0.03873789  1
