# generated using pymatgen
data_N2
_symmetry_space_group_name_H-M   'P 1'
_cell_length_a   3.93252380
_cell_length_b   3.94052193
_cell_length_c   6.59738417
_cell_angle_alpha   90.20247057
_cell_angle_beta   90.13640077
_cell_angle_gamma   111.55051527
_symmetry_Int_Tables_number   1
_chemical_formula_structural   N2
_chemical_formula_sum   N4
_cell_volume   95.08623540
_cell_formula_units_Z   2
loop_
 _symmetry_equiv_pos_site_id
 _symmetry_equiv_pos_as_xyz
  1  'x, y, z'
loop_
 _atom_site_type_symbol
 _atom_site_label
 _atom_site_symmetry_multiplicity
 _atom_site_fract_x
 _atom_site_fract_y
 _atom_site_fract_z
 _atom_site_occupancy
  N  N0  1  0.90917564  0.02738340  0.13478905  1
  N  N1  1  0.45159944  0.89776107  0.63543501  1
  N  N2  1  0.25196205  0.68902205  0.53636761  1
  N  N3  1  0.10914287  0.23532348  0.03692834  1
