# generated using pymatgen
data_H2SO4
_symmetry_space_group_name_H-M   'P 1'
_cell_length_a   4.69724903
_cell_length_b   4.69724903
_cell_length_c   9.06769005
_cell_angle_alpha   66.83956742
_cell_angle_beta   66.83956742
_cell_angle_gamma   58.46307656
_symmetry_Int_Tables_number   1
_chemical_formula_structural   H2SO4
_chemical_formula_sum   'H4 S2 O8'
_cell_volume   152.21974225
_cell_formula_units_Z   2
loop_
 _symmetry_equiv_pos_site_id
 _symmetry_equiv_pos_as_xyz
  1  'x, y, z'
loop_
 _atom_site_type_symbol
 _atom_site_label
 _atom_site_symmetry_multiplicity
 _atom_site_fract_x
 _atom_site_fract_y
 _atom_site_fract_z
 _atom_site_occupancy
  H  H0  1  0.51056237  0.24278572  0.88741787  1
  H  H1  1  0.75721428  0.48943763  0.11258213  1
  H  H2  1  0.63151063  0.89257635  0.60989525  1
  H  H3  1  0.10742365  0.36848937  0.39010475  1
  S  S4  1  0.13890137  0.86109863  0.50000000  1
  S  S5  1  0.90552409  0.09447591  0.00000000  1
  O  O6  1  0.38892999  0.78813923  0.57807085  1
  O  O7  1  0.21186077  0.61107001  0.42192915  1
  O  O8  1  0.70521896  0.29742589  0.86411701  1
  O  O9  1  0.70257411  0.29478104  0.13588299  1
  O  O10  1  0.80127509  0.92570375  0.63397878  1
  O  O11  1  0.07429625  0.19872491  0.36602122  1
  O  O12  1  0.23322889  0.09986345  0.92559012  1
  O  O13  1  0.90013655  0.76677111  0.07440988  1
