# generated using pymatgen
data_Li3Mg2F7
_symmetry_space_group_name_H-M   'P 1'
_cell_length_a   9.42728976
_cell_length_b   9.42728976
_cell_length_c   5.26009941
_cell_angle_alpha   90.00000000
_cell_angle_beta   90.00000000
_cell_angle_gamma   148.10919667
_symmetry_Int_Tables_number   1
_chemical_formula_structural   Li3Mg2F7
_chemical_formula_sum   'Li6 Mg4 F14'
_cell_volume   246.97327775
_cell_formula_units_Z   2
loop_
 _symmetry_equiv_pos_site_id
 _symmetry_equiv_pos_as_xyz
  1  'x, y, z'
loop_
 _atom_site_type_symbol
 _atom_site_label
 _atom_site_symmetry_multiplicity
 _atom_site_fract_x
 _atom_site_fract_y
 _atom_site_fract_z
 _atom_site_occupancy
  Li  Li0  1  0.25218876  0.25218876  0.27781285  1
  Li  Li1  1  0.74781124  0.74781124  0.77781285  1
  Li  Li2  1  0.01882155  0.42506637  0.20073316  1
  Li  Li3  1  0.98117845  0.57493363  0.70073316  1
  Li  Li4  1  0.42506637  0.01882155  0.20073316  1
  Li  Li5  1  0.57493363  0.98117845  0.70073316  1
  Mg  Mg6  1  0.85149414  0.64270001  0.24625024  1
  Mg  Mg7  1  0.14850586  0.35729999  0.74625024  1
  Mg  Mg8  1  0.35729999  0.14850586  0.74625024  1
  Mg  Mg9  1  0.64270001  0.85149414  0.24625024  1
  F  F10  1  0.66375452  0.07717978  0.32530380  1
  F  F11  1  0.33624548  0.92282022  0.82530380  1
  F  F12  1  0.92282022  0.33624548  0.82530380  1
  F  F13  1  0.07717978  0.66375452  0.32530380  1
  F  F14  1  0.44801971  0.71551984  0.92110118  1
  F  F15  1  0.55198029  0.28448016  0.42110118  1
  F  F16  1  0.28448016  0.55198029  0.42110118  1
  F  F17  1  0.71551984  0.44801971  0.92110118  1
  F  F18  1  0.00297604  0.15437620  0.07157724  1
  F  F19  1  0.99702396  0.84562380  0.57157724  1
  F  F20  1  0.61938130  0.61938130  0.17225591  1
  F  F21  1  0.38061870  0.38061870  0.67225591  1
  F  F22  1  0.15437620  0.00297604  0.07157724  1
  F  F23  1  0.84562380  0.99702396  0.57157724  1
