# generated using pymatgen
data_Li2CaMgF6
_symmetry_space_group_name_H-M   'P 1'
_cell_length_a   5.29473363
_cell_length_b   5.29543970
_cell_length_c   5.68692136
_cell_angle_alpha   89.99962818
_cell_angle_beta   117.74192629
_cell_angle_gamma   119.99468547
_symmetry_Int_Tables_number   1
_chemical_formula_structural   Li2CaMgF6
_chemical_formula_sum   'Li2 Ca1 Mg1 F6'
_cell_volume   116.45306477
_cell_formula_units_Z   1
loop_
 _symmetry_equiv_pos_site_id
 _symmetry_equiv_pos_as_xyz
  1  'x, y, z'
loop_
 _atom_site_type_symbol
 _atom_site_label
 _atom_site_symmetry_multiplicity
 _atom_site_fract_x
 _atom_site_fract_y
 _atom_site_fract_z
 _atom_site_occupancy
  Li  Li0  1  0.94331240  0.47151252  0.41503377  1
  Li  Li1  1  0.95642093  0.97826113  0.93479491  1
  Ca  Ca2  1  0.38048555  0.19019811  0.57080635  1
  Mg  Mg3  1  0.36338448  0.68170483  0.04505226  1
  F  F4  1  0.83719522  0.07710346  0.24711764  1
  F  F5  1  0.48726116  0.41012183  0.24730201  1
  F  F6  1  0.17007401  0.76006119  0.24725009  1
  F  F7  1  0.14602090  0.86383164  0.76943585  1
  F  F8  1  0.48701646  0.62333634  0.76920380  1
  F  F9  1  0.90562690  0.28226796  0.76920433  1
