# generated using pymatgen
data_NaLi2AlF6
_symmetry_space_group_name_H-M   'P 1'
_cell_length_a   5.15411003
_cell_length_b   5.15439719
_cell_length_c   5.56948114
_cell_angle_alpha   62.43790368
_cell_angle_beta   62.45251604
_cell_angle_gamma   60.01009347
_symmetry_Int_Tables_number   1
_chemical_formula_structural   NaLi2AlF6
_chemical_formula_sum   'Na1 Li2 Al1 F6'
_cell_volume   108.33425422
_cell_formula_units_Z   1
loop_
 _symmetry_equiv_pos_site_id
 _symmetry_equiv_pos_as_xyz
  1  'x, y, z'
loop_
 _atom_site_type_symbol
 _atom_site_label
 _atom_site_symmetry_multiplicity
 _atom_site_fract_x
 _atom_site_fract_y
 _atom_site_fract_z
 _atom_site_occupancy
  Na  Na0  1  0.81153903  0.81156667  0.56538638  1
  Li  Li1  1  0.53001738  0.53000378  0.40996877  1
  Li  Li2  1  0.02045638  0.02026890  0.93877119  1
  Al  Al3  1  0.32379980  0.32382892  0.02856230  1
  F  F4  1  0.95541755  0.55570500  0.23693619  1
  F  F5  1  0.55576189  0.25198183  0.23696141  1
  F  F6  1  0.25212122  0.95528957  0.23698999  1
  F  F7  1  0.13647175  0.37887922  0.78731159  1
  F  F8  1  0.37887808  0.69727177  0.78716746  1
  F  F9  1  0.69713789  0.13680134  0.78714574  1
