# generated using pymatgen
data_Sr2MgBi2
_symmetry_space_group_name_H-M   'P 1'
_cell_length_a   8.11877246
_cell_length_b   4.91463869
_cell_length_c   9.49132602
_cell_angle_alpha   75.01722732
_cell_angle_beta   90.00000000
_cell_angle_gamma   90.00000000
_symmetry_Int_Tables_number   1
_chemical_formula_structural   Sr2MgBi2
_chemical_formula_sum   'Sr4 Mg2 Bi4'
_cell_volume   365.83697966
_cell_formula_units_Z   2
loop_
 _symmetry_equiv_pos_site_id
 _symmetry_equiv_pos_as_xyz
  1  'x, y, z'
loop_
 _atom_site_type_symbol
 _atom_site_label
 _atom_site_symmetry_multiplicity
 _atom_site_fract_x
 _atom_site_fract_y
 _atom_site_fract_z
 _atom_site_occupancy
  Sr  Sr0  1  0.26764012  0.47322377  0.05359411  1
  Sr  Sr1  1  0.59932131  0.29744735  0.40481733  1
  Sr  Sr2  1  0.09932131  0.70255265  0.59518267  1
  Sr  Sr3  1  0.76764012  0.52677623  0.94640589  1
  Mg  Mg4  1  0.92578696  0.90539692  0.18959555  1
  Mg  Mg5  1  0.42578696  0.09460308  0.81040445  1
  Bi  Bi6  1  0.55390593  0.93367298  0.13261118  1
  Bi  Bi7  1  0.01898765  0.32736247  0.34555917  1
  Bi  Bi8  1  0.51898765  0.67263753  0.65444083  1
  Bi  Bi9  1  0.05390593  0.06632702  0.86738881  1
