# generated using pymatgen
data_Ba2CaBi2
_symmetry_space_group_name_H-M   'P 1'
_cell_length_a   10.09386417
_cell_length_b   10.09386417
_cell_length_c   8.88879065
_cell_angle_alpha   90.00000000
_cell_angle_beta   90.00000000
_cell_angle_gamma   150.14729234
_symmetry_Int_Tables_number   1
_chemical_formula_structural   Ba2CaBi2
_chemical_formula_sum   'Ba4 Ca2 Bi4'
_cell_volume   450.80432935
_cell_formula_units_Z   2
loop_
 _symmetry_equiv_pos_site_id
 _symmetry_equiv_pos_as_xyz
  1  'x, y, z'
loop_
 _atom_site_type_symbol
 _atom_site_label
 _atom_site_symmetry_multiplicity
 _atom_site_fract_x
 _atom_site_fract_y
 _atom_site_fract_z
 _atom_site_occupancy
  Ba  Ba0  1  0.96268998  0.03731002  0.73277589  1
  Ba  Ba1  1  0.79770758  0.20229242  0.39149566  1
  Ba  Ba2  1  0.20229242  0.79770758  0.89149566  1
  Ba  Ba3  1  0.03731002  0.96268998  0.23277589  1
  Ca  Ca4  1  0.40425729  0.59574271  0.08069354  1
  Ca  Ca5  1  0.59574271  0.40425729  0.58069354  1
  Bi  Bi6  1  0.43829937  0.56170062  0.44018616  1
  Bi  Bi7  1  0.82337788  0.17662212  0.98920575  1
  Bi  Bi8  1  0.17662212  0.82337788  0.48920575  1
  Bi  Bi9  1  0.56170062  0.43829937  0.94018616  1
