# generated using pymatgen
data_MgZn2Te3
_symmetry_space_group_name_H-M   'P 1'
_cell_length_a   7.71646887
_cell_length_b   7.71646887
_cell_length_c   7.68359665
_cell_angle_alpha   80.50301436
_cell_angle_beta   80.50301436
_cell_angle_gamma   120.13911603
_symmetry_Int_Tables_number   1
_chemical_formula_structural   MgZn2Te3
_chemical_formula_sum   'Mg2 Zn4 Te6'
_cell_volume   373.40014084
_cell_formula_units_Z   2
loop_
 _symmetry_equiv_pos_site_id
 _symmetry_equiv_pos_as_xyz
  1  'x, y, z'
loop_
 _atom_site_type_symbol
 _atom_site_label
 _atom_site_symmetry_multiplicity
 _atom_site_fract_x
 _atom_site_fract_y
 _atom_site_fract_z
 _atom_site_occupancy
  Mg  Mg0  1  0.90173668  0.07316959  0.50773259  1
  Mg  Mg1  1  0.07316959  0.90173668  0.00773259  1
  Zn  Zn2  1  0.40583552  0.57112451  0.00706792  1
  Zn  Zn3  1  0.24084855  0.73500880  0.50738133  1
  Zn  Zn4  1  0.57112451  0.40583552  0.50706792  1
  Zn  Zn5  1  0.73500880  0.24084855  0.00738133  1
  Te  Te6  1  0.94563380  0.76662484  0.39271750  1
  Te  Te7  1  0.76662484  0.94563380  0.89271750  1
  Te  Te8  1  0.11557480  0.60095250  0.87867168  1
  Te  Te9  1  0.60095250  0.11557480  0.37867168  1
  Te  Te10  1  0.45665860  0.29179980  0.87770599  1
  Te  Te11  1  0.29179980  0.45665860  0.37770599  1
