# generated using pymatgen
data_RbGeSb
_symmetry_space_group_name_H-M   'P 1'
_cell_length_a   6.74817883
_cell_length_b   6.74817883
_cell_length_c   6.74817883
_cell_angle_alpha   122.71164117
_cell_angle_beta   118.16787225
_cell_angle_gamma   89.28562931
_symmetry_Int_Tables_number   1
_chemical_formula_structural   RbGeSb
_chemical_formula_sum   'Rb2 Ge2 Sb2'
_cell_volume   215.39903537
_cell_formula_units_Z   2
loop_
 _symmetry_equiv_pos_site_id
 _symmetry_equiv_pos_as_xyz
  1  'x, y, z'
loop_
 _atom_site_type_symbol
 _atom_site_label
 _atom_site_symmetry_multiplicity
 _atom_site_fract_x
 _atom_site_fract_y
 _atom_site_fract_z
 _atom_site_occupancy
  Rb  Rb0  1  0.76453147  0.76453147  -0.00000000  1
  Rb  Rb1  1  0.52044161  0.02044161  0.50000000  1
  Ge  Ge2  1  0.54571551  0.35595527  0.18976024  1
  Ge  Ge3  1  0.16619503  0.35595527  0.81023976  1
  Sb  Sb4  1  0.14974319  0.92500305  0.77525986  1
  Sb  Sb5  1  0.14974319  0.37448333  0.22474014  1
