# generated using pymatgen
data_IBr4
_symmetry_space_group_name_H-M   'P 1'
_cell_length_a   6.19541211
_cell_length_b   7.83993000
_cell_length_c   10.50771767
_cell_angle_alpha   100.07624494
_cell_angle_beta   102.32933161
_cell_angle_gamma   103.86468302
_symmetry_Int_Tables_number   1
_chemical_formula_structural   IBr4
_chemical_formula_sum   'I2 Br8'
_cell_volume   470.11954969
_cell_formula_units_Z   2
loop_
 _symmetry_equiv_pos_site_id
 _symmetry_equiv_pos_as_xyz
  1  'x, y, z'
loop_
 _atom_site_type_symbol
 _atom_site_label
 _atom_site_symmetry_multiplicity
 _atom_site_fract_x
 _atom_site_fract_y
 _atom_site_fract_z
 _atom_site_occupancy
  I  I0  1  0.01950299  0.59081384  0.24559956  1
  I  I1  1  0.80578455  0.08568886  0.74942985  1
  Br  Br2  1  0.24034795  0.96328527  0.37297031  1
  Br  Br3  1  0.45653995  0.66957937  0.66569747  1
  Br  Br4  1  0.70803826  0.68872619  0.08246636  1
  Br  Br5  1  0.48549413  0.53599595  0.44279826  1
  Br  Br6  1  0.38484858  0.78992091  0.90665673  1
  Br  Br7  1  0.05219181  0.41709882  0.83378332  1
  Br  Br8  1  0.83153912  0.24620298  0.14736700  1
  Br  Br9  1  0.01572967  0.01270682  0.55322216  1
