# generated using pymatgen
data_PtSeCl2
_symmetry_space_group_name_H-M   'P 1'
_cell_length_a   4.28907449
_cell_length_b   4.28907449
_cell_length_c   8.02741821
_cell_angle_alpha   78.42866815
_cell_angle_beta   78.42866815
_cell_angle_gamma   48.93270549
_symmetry_Int_Tables_number   1
_chemical_formula_structural   PtSeCl2
_chemical_formula_sum   'Pt1 Se1 Cl2'
_cell_volume   108.59963572
_cell_formula_units_Z   1
loop_
 _symmetry_equiv_pos_site_id
 _symmetry_equiv_pos_as_xyz
  1  'x, y, z'
loop_
 _atom_site_type_symbol
 _atom_site_label
 _atom_site_symmetry_multiplicity
 _atom_site_fract_x
 _atom_site_fract_y
 _atom_site_fract_z
 _atom_site_occupancy
  Pt  Pt0  1  0.51342450  0.51342450  0.52757027  1
  Se  Se1  1  0.86489478  0.86489478  0.70137034  1
  Cl  Cl2  1  0.98105724  0.98105724  0.93452718  1
  Cl  Cl3  1  0.14062348  0.14062348  0.33653221  1
