# generated using pymatgen
data_Mg2GeSe4
_symmetry_space_group_name_H-M   'P 1'
_cell_length_a   6.19634086
_cell_length_b   6.19634086
_cell_length_c   6.77975231
_cell_angle_alpha   62.84015364
_cell_angle_beta   62.84015364
_cell_angle_gamma   89.98939295
_symmetry_Int_Tables_number   1
_chemical_formula_structural   Mg2GeSe4
_chemical_formula_sum   'Mg2 Ge1 Se4'
_cell_volume   198.81310191
_cell_formula_units_Z   1
loop_
 _symmetry_equiv_pos_site_id
 _symmetry_equiv_pos_as_xyz
  1  'x, y, z'
loop_
 _atom_site_type_symbol
 _atom_site_label
 _atom_site_symmetry_multiplicity
 _atom_site_fract_x
 _atom_site_fract_y
 _atom_site_fract_z
 _atom_site_occupancy
  Mg  Mg0  1  0.50001772  0.00012181  0.99996725  1
  Mg  Mg1  1  0.00012181  0.50001772  0.99996725  1
  Ge  Ge2  1  0.75005046  0.75005046  0.49997212  1
  Se  Se3  1  0.62667995  0.62667995  0.27184637  1
  Se  Se4  1  0.39856460  0.87331899  0.72802993  1
  Se  Se5  1  0.10124810  0.10124810  0.27213408  1
  Se  Se6  1  0.87331899  0.39856460  0.72802993  1
