# generated using pymatgen
data_S2BrCl
_symmetry_space_group_name_H-M   'P 1'
_cell_length_a   4.75080142
_cell_length_b   7.53672334
_cell_length_c   8.84527426
_cell_angle_alpha   89.13513707
_cell_angle_beta   85.84447806
_cell_angle_gamma   87.32520035
_symmetry_Int_Tables_number   1
_chemical_formula_structural   S2BrCl
_chemical_formula_sum   'S4 Br2 Cl2'
_cell_volume   315.51068227
_cell_formula_units_Z   2
loop_
 _symmetry_equiv_pos_site_id
 _symmetry_equiv_pos_as_xyz
  1  'x, y, z'
loop_
 _atom_site_type_symbol
 _atom_site_label
 _atom_site_symmetry_multiplicity
 _atom_site_fract_x
 _atom_site_fract_y
 _atom_site_fract_z
 _atom_site_occupancy
  S  S0  1  0.70344392  0.94041340  0.85629772  1
  S  S1  1  0.96439748  0.77608620  0.74709255  1
  S  S2  1  0.40591119  0.46358396  0.24410057  1
  S  S3  1  0.16665757  0.31391504  0.37098527  1
  Br  Br4  1  0.91849279  0.08303732  0.04103994  1
  Br  Br5  1  0.45679003  0.72874642  0.35673526  1
  Cl  Cl6  1  0.40735258  0.16548972  0.52519351  1
  Cl  Cl7  1  0.97695242  0.52872695  0.85855618  1
