# generated using pymatgen
data_PS3Br
_symmetry_space_group_name_H-M   'P 1'
_cell_length_a   6.58146443
_cell_length_b   6.92938824
_cell_length_c   7.91461740
_cell_angle_alpha   98.55901098
_cell_angle_beta   89.76087008
_cell_angle_gamma   92.79791242
_symmetry_Int_Tables_number   1
_chemical_formula_structural   PS3Br
_chemical_formula_sum   'P2 S6 Br2'
_cell_volume   356.50315782
_cell_formula_units_Z   2
loop_
 _symmetry_equiv_pos_site_id
 _symmetry_equiv_pos_as_xyz
  1  'x, y, z'
loop_
 _atom_site_type_symbol
 _atom_site_label
 _atom_site_symmetry_multiplicity
 _atom_site_fract_x
 _atom_site_fract_y
 _atom_site_fract_z
 _atom_site_occupancy
  P  P0  1  0.27718700  0.21133694  0.33790761  1
  P  P1  1  0.78734406  0.43546974  0.76043388  1
  S  S2  1  0.46515725  0.39739674  0.73551442  1
  S  S3  1  0.29887864  0.98854422  0.16300028  1
  S  S4  1  0.92881837  0.50515197  0.53254552  1
  S  S5  1  0.95941090  0.25326530  0.36198686  1
  S  S6  1  0.83267186  0.65639854  0.93714161  1
  S  S7  1  0.40710687  0.14403152  0.56756481  1
  Br  Br8  1  0.41210555  0.50108948  0.29634676  1
  Br  Br9  1  0.88756450  0.14342956  0.79984825  1
