# generated using pymatgen
data_LiAlF4
_symmetry_space_group_name_H-M   'P 1'
_cell_length_a   4.48459782
_cell_length_b   5.05118266
_cell_length_c   5.34435407
_cell_angle_alpha   90.00000000
_cell_angle_beta   90.00000000
_cell_angle_gamma   90.00000000
_symmetry_Int_Tables_number   1
_chemical_formula_structural   LiAlF4
_chemical_formula_sum   'Li2 Al2 F8'
_cell_volume   121.06310213
_cell_formula_units_Z   2
loop_
 _symmetry_equiv_pos_site_id
 _symmetry_equiv_pos_as_xyz
  1  'x, y, z'
loop_
 _atom_site_type_symbol
 _atom_site_label
 _atom_site_symmetry_multiplicity
 _atom_site_fract_x
 _atom_site_fract_y
 _atom_site_fract_z
 _atom_site_occupancy
  Li  Li0  1  0.00000000  0.50000000  0.16579616  1
  Li  Li1  1  0.50000000  0.50000000  0.66579616  1
  Al  Al2  1  0.00000000  0.00000000  0.85689777  1
  Al  Al3  1  0.50000000  0.00000000  0.35689777  1
  F  F4  1  0.24523454  0.86104883  0.11586891  1
  F  F5  1  0.20092544  0.30070691  0.87278413  1
  F  F6  1  0.29907456  0.30070691  0.37278413  1
  F  F7  1  0.25476546  0.86104883  0.61586891  1
  F  F8  1  0.70092544  0.69929309  0.37278413  1
  F  F9  1  0.74523454  0.13895117  0.61586891  1
  F  F10  1  0.75476546  0.13895117  0.11586891  1
  F  F11  1  0.79907456  0.69929309  0.87278413  1
