# generated using pymatgen
data_PF5
_symmetry_space_group_name_H-M   'P 1'
_cell_length_a   5.03186785
_cell_length_b   5.03186785
_cell_length_c   18.20115521
_cell_angle_alpha   90.00000000
_cell_angle_beta   90.00000000
_cell_angle_gamma   119.55728521
_symmetry_Int_Tables_number   1
_chemical_formula_structural   PF5
_chemical_formula_sum   'P1 F5'
_cell_volume   400.87431383
_cell_formula_units_Z   1
loop_
 _symmetry_equiv_pos_site_id
 _symmetry_equiv_pos_as_xyz
  1  'x, y, z'
loop_
 _atom_site_type_symbol
 _atom_site_label
 _atom_site_symmetry_multiplicity
 _atom_site_fract_x
 _atom_site_fract_y
 _atom_site_fract_z
 _atom_site_occupancy
  P  P0  1  0.06469736  0.06469736  0.50000000  1
  F  F1  1  0.06894137  0.37755609  0.50000000  1
  F  F2  1  0.37755609  0.06894137  0.50000000  1
  F  F3  1  0.06024336  0.06024336  0.41206177  1
  F  F4  1  0.06024336  0.06024336  0.58793823  1
  F  F5  1  0.75464844  0.75464844  0.50000000  1
