# generated using pymatgen
data_KBe2F5
_symmetry_space_group_name_H-M   'P 1'
_cell_length_a   4.51887678
_cell_length_b   4.66142091
_cell_length_c   6.02278937
_cell_angle_alpha   93.86734493
_cell_angle_beta   90.06817739
_cell_angle_gamma   118.96436474
_symmetry_Int_Tables_number   1
_chemical_formula_structural   KBe2F5
_chemical_formula_sum   'K1 Be2 F5'
_cell_volume   110.66199443
_cell_formula_units_Z   1
loop_
 _symmetry_equiv_pos_site_id
 _symmetry_equiv_pos_as_xyz
  1  'x, y, z'
loop_
 _atom_site_type_symbol
 _atom_site_label
 _atom_site_symmetry_multiplicity
 _atom_site_fract_x
 _atom_site_fract_y
 _atom_site_fract_z
 _atom_site_occupancy
  K  K0  1  0.99003999  0.98315808  0.01087860  1
  Be  Be1  1  0.60491303  0.31569929  0.60571872  1
  Be  Be2  1  0.27351978  0.65310066  0.41618503  1
  F  F3  1  0.68378895  0.30993912  0.84687743  1
  F  F4  1  0.52067776  0.60365202  0.57510751  1
  F  F5  1  0.28369049  0.98488590  0.51010194  1
  F  F6  1  0.90157869  0.36605799  0.44718073  1
  F  F7  1  0.35697864  0.65669528  0.17495003  1
