# generated using pymatgen
data_HgSeO4
_symmetry_space_group_name_H-M   'P 1'
_cell_length_a   6.73110000
_cell_length_b   4.93080000
_cell_length_c   4.98900000
_cell_angle_alpha   90.00000000
_cell_angle_beta   90.00000000
_cell_angle_gamma   90.00000000
_symmetry_Int_Tables_number   1
_chemical_formula_structural   HgSeO4
_chemical_formula_sum   'Hg2 Se2 O8'
_cell_volume   165.58345261
_cell_formula_units_Z   2
loop_
 _symmetry_equiv_pos_site_id
 _symmetry_equiv_pos_as_xyz
  1  'x, y, z'
loop_
 _atom_site_type_symbol
 _atom_site_label
 _atom_site_symmetry_multiplicity
 _atom_site_fract_x
 _atom_site_fract_y
 _atom_site_fract_z
 _atom_site_occupancy
  Hg  Hg0  1  0.50000000  0.14591000  0.50000000  1.0
  Hg  Hg1  1  0.00000000  0.85409000  0.00000000  1.0
  Se  Se2  1  0.50000000  0.65953000  0.98060000  1.0
  Se  Se3  1  0.00000000  0.34047000  0.48060000  1.0
  O  O4  1  0.50000000  0.70040000  0.30720000  1.0
  O  O5  1  0.00000000  0.29960000  0.80720000  1.0
  O  O6  1  0.50000000  0.33300000  0.91640000  1.0
  O  O7  1  0.00000000  0.66700000  0.41640000  1.0
  O  O8  1  0.69240000  0.80960000  0.83380000  1.0
  O  O9  1  0.80760000  0.19040000  0.33380000  1.0
  O  O10  1  0.19240000  0.19040000  0.33380000  1.0
  O  O11  1  0.30760000  0.80960000  0.83380000  1.0
