# generated using pymatgen
data_NaLiBeF4
_symmetry_space_group_name_H-M   'P 1'
_cell_length_a   5.12924685
_cell_length_b   5.12924685
_cell_length_c   5.12924685
_cell_angle_alpha   121.48045839
_cell_angle_beta   121.48045839
_cell_angle_gamma   87.45434435
_symmetry_Int_Tables_number   1
_chemical_formula_structural   NaLiBeF4
_chemical_formula_sum   'Na1 Li1 Be1 F4'
_cell_volume   93.18619221
_cell_formula_units_Z   1
loop_
 _symmetry_equiv_pos_site_id
 _symmetry_equiv_pos_as_xyz
  1  'x, y, z'
loop_
 _atom_site_type_symbol
 _atom_site_label
 _atom_site_symmetry_multiplicity
 _atom_site_fract_x
 _atom_site_fract_y
 _atom_site_fract_z
 _atom_site_occupancy
  Na  Na0  1  0.00000000  0.00000000  0.00000000  1
  Li  Li1  1  0.50000000  0.50000000  -0.00000000  1
  Be  Be2  1  0.25000000  0.75000000  0.50000000  1
  F  F3  1  0.51785432  0.07919402  0.85818209  1
  F  F4  1  0.92080598  0.77898807  0.43866030  1
  F  F5  1  0.22101193  0.65967223  0.14181791  1
  F  F6  1  0.34032777  0.48214568  0.56133970  1
