# generated using pymatgen
data_NaSr2YF8
_symmetry_space_group_name_H-M   'P 1'
_cell_length_a   6.97312690
_cell_length_b   6.97312690
_cell_length_c   6.97312690
_cell_angle_alpha   131.93619189
_cell_angle_beta   131.93619189
_cell_angle_gamma   70.32982354
_symmetry_Int_Tables_number   1
_chemical_formula_structural   NaSr2YF8
_chemical_formula_sum   'Na1 Sr2 Y1 F8'
_cell_volume   183.88290880
_cell_formula_units_Z   1
loop_
 _symmetry_equiv_pos_site_id
 _symmetry_equiv_pos_as_xyz
  1  'x, y, z'
loop_
 _atom_site_type_symbol
 _atom_site_label
 _atom_site_symmetry_multiplicity
 _atom_site_fract_x
 _atom_site_fract_y
 _atom_site_fract_z
 _atom_site_occupancy
  Na  Na0  1  0.50000000  0.50000000  0.00000000  1
  Sr  Sr1  1  0.75000000  0.25000000  0.50000000  1
  Sr  Sr2  1  0.00000000  0.00000000  0.00000000  1
  Y  Y3  1  0.25000000  0.75000000  0.50000000  1
  F  F4  1  0.13149704  0.10366228  0.49899911  1
  F  F5  1  0.60466317  0.10366228  0.97216524  1
  F  F6  1  0.36750207  0.86850296  0.97216524  1
  F  F7  1  0.89633772  0.39533683  0.02783476  1
  F  F8  1  0.60466317  0.63249793  0.50100089  1
  F  F9  1  0.36750207  0.39533683  0.49899911  1
  F  F10  1  0.13149704  0.63249793  0.02783476  1
  F  F11  1  0.89633772  0.86850296  0.50100089  1
