# generated using pymatgen
data_KBH4
_symmetry_space_group_name_H-M   'P 1'
_cell_length_a   4.77093282
_cell_length_b   4.77116994
_cell_length_c   4.77285024
_cell_angle_alpha   93.65309959
_cell_angle_beta   118.63638565
_cell_angle_gamma   117.17934207
_symmetry_Int_Tables_number   1
_chemical_formula_structural   KBH4
_chemical_formula_sum   'K1 B1 H4'
_cell_volume   79.07310774
_cell_formula_units_Z   1
loop_
 _symmetry_equiv_pos_site_id
 _symmetry_equiv_pos_as_xyz
  1  'x, y, z'
loop_
 _atom_site_type_symbol
 _atom_site_label
 _atom_site_symmetry_multiplicity
 _atom_site_fract_x
 _atom_site_fract_y
 _atom_site_fract_z
 _atom_site_occupancy
  K  K0  1  0.49861661  0.99829990  0.50171650  1
  B  B1  1  0.49972392  0.49814601  0.00299484  1
  H  H2  1  0.50157436  0.24561591  0.03509683  1
  H  H3  1  0.21369668  0.46573847  0.96977534  1
  H  H4  1  0.78445732  0.75043486  0.25731853  1
  H  H5  1  0.49855012  0.53059286  0.74937694  1
