# generated using pymatgen
data_SrY2F8
_symmetry_space_group_name_H-M   'P 1'
_cell_length_a   6.96426843
_cell_length_b   6.96426843
_cell_length_c   5.67469395
_cell_angle_alpha   68.46247587
_cell_angle_beta   68.46247587
_cell_angle_gamma   35.67191747
_symmetry_Int_Tables_number   1
_chemical_formula_structural   SrY2F8
_chemical_formula_sum   'Sr1 Y2 F8'
_cell_volume   148.08264392
_cell_formula_units_Z   1
loop_
 _symmetry_equiv_pos_site_id
 _symmetry_equiv_pos_as_xyz
  1  'x, y, z'
loop_
 _atom_site_type_symbol
 _atom_site_label
 _atom_site_symmetry_multiplicity
 _atom_site_fract_x
 _atom_site_fract_y
 _atom_site_fract_z
 _atom_site_occupancy
  Sr  Sr0  1  0.88958574  0.11041426  0.00000000  1
  Y  Y1  1  0.55523098  0.76448927  0.32924436  1
  Y  Y2  1  0.23551073  0.44476902  0.67075564  1
  F  F3  1  0.35796930  0.61522526  0.27380372  1
  F  F4  1  0.52021805  0.10078157  0.35769250  1
  F  F5  1  0.97546488  0.22129323  0.32193320  1
  F  F6  1  0.38477474  0.64203070  0.72619628  1
  F  F7  1  0.89921843  0.47978195  0.64230750  1
  F  F8  1  0.39849517  0.99512244  0.93169982  1
  F  F9  1  0.77870677  0.02453512  0.67806680  1
  F  F10  1  0.00487756  0.60150483  0.06830018  1
