# generated using pymatgen
data_KNa2NbO4
_symmetry_space_group_name_H-M   'P 1'
_cell_length_a   5.89232521
_cell_length_b   5.72540880
_cell_length_c   5.72451860
_cell_angle_alpha   61.94369157
_cell_angle_beta   59.03557615
_cell_angle_gamma   59.02073229
_symmetry_Int_Tables_number   1
_chemical_formula_structural   KNa2NbO4
_chemical_formula_sum   'K1 Na2 Nb1 O4'
_cell_volume   136.31751538
_cell_formula_units_Z   1
loop_
 _symmetry_equiv_pos_site_id
 _symmetry_equiv_pos_as_xyz
  1  'x, y, z'
loop_
 _atom_site_type_symbol
 _atom_site_label
 _atom_site_symmetry_multiplicity
 _atom_site_fract_x
 _atom_site_fract_y
 _atom_site_fract_z
 _atom_site_occupancy
  K  K0  1  0.00016943  0.99983057  0.99983057  1
  Na  Na1  1  0.75006158  0.74993842  0.74993842  1
  Na  Na2  1  0.25006158  0.24993842  0.24993842  1
  Nb  Nb3  1  0.50001882  0.49998119  0.49998119  1
  O  O4  1  0.55203684  0.44796316  0.82213075  1
  O  O5  1  0.44793297  0.17792760  0.55206702  1
  O  O6  1  0.82207239  0.55206702  0.17792761  1
  O  O7  1  0.17786925  0.82213075  0.44796316  1
