# generated using pymatgen
data_H9ClO3
_symmetry_space_group_name_H-M   'P 1'
_cell_length_a   6.78637932
_cell_length_b   6.78637932
_cell_length_c   8.70243957
_cell_angle_alpha   67.00964801
_cell_angle_beta   67.00964801
_cell_angle_gamma   61.51673654
_symmetry_Int_Tables_number   1
_chemical_formula_structural   H9ClO3
_chemical_formula_sum   'H18 Cl2 O6'
_cell_volume   313.78777984
_cell_formula_units_Z   2
loop_
 _symmetry_equiv_pos_site_id
 _symmetry_equiv_pos_as_xyz
  1  'x, y, z'
loop_
 _atom_site_type_symbol
 _atom_site_label
 _atom_site_symmetry_multiplicity
 _atom_site_fract_x
 _atom_site_fract_y
 _atom_site_fract_z
 _atom_site_occupancy
  H  H0  1  0.26635380  0.94116720  0.40558962  1
  H  H1  1  0.94116720  0.26635380  0.90558962  1
  H  H2  1  0.33252538  0.67537381  0.32491232  1
  H  H3  1  0.67537381  0.33252538  0.82491232  1
  H  H4  1  0.21207252  0.12766551  0.94750024  1
  H  H5  1  0.12766551  0.21207252  0.44750024  1
  H  H6  1  0.84063605  0.45826746  0.68076096  1
  H  H7  1  0.45826746  0.84063605  0.18076096  1
  H  H8  1  0.86871509  0.81705182  0.01147933  1
  H  H9  1  0.81705182  0.86871509  0.51147933  1
  H  H10  1  0.68633951  0.00188086  0.66163314  1
  H  H11  1  0.00188086  0.68633951  0.16163314  1
  H  H12  1  0.21383511  0.58320066  0.76733626  1
  H  H13  1  0.58320066  0.21383511  0.26733626  1
  H  H14  1  0.53669944  0.23639493  0.19403075  1
  H  H15  1  0.23639493  0.53669944  0.69403075  1
  H  H16  1  0.04116593  0.97522984  0.01139054  1
  H  H17  1  0.97522984  0.04116593  0.51139054  1
  Cl  Cl18  1  0.03364011  0.55488244  0.41851854  1
  Cl  Cl19  1  0.55488244  0.03364011  0.91851854  1
  O  O20  1  0.76874932  0.01735022  0.53736176  1
  O  O21  1  0.01735022  0.76874932  0.03736176  1
  O  O22  1  0.04710502  0.14038070  0.99062617  1
  O  O23  1  0.14038070  0.04710502  0.49062617  1
  O  O24  1  0.41813881  0.76982369  0.30636430  1
  O  O25  1  0.76982369  0.41813881  0.80636430  1
