# generated using pymatgen
data_Sc3SeBr7
_symmetry_space_group_name_H-M   'P 1'
_cell_length_a   7.76637935
_cell_length_b   7.76637935
_cell_length_c   9.61409683
_cell_angle_alpha   52.83147172
_cell_angle_beta   52.83147172
_cell_angle_gamma   59.99625953
_symmetry_Int_Tables_number   1
_chemical_formula_structural   Sc3SeBr7
_chemical_formula_sum   'Sc3 Se1 Br7'
_cell_volume   359.80001208
_cell_formula_units_Z   1
loop_
 _symmetry_equiv_pos_site_id
 _symmetry_equiv_pos_as_xyz
  1  'x, y, z'
loop_
 _atom_site_type_symbol
 _atom_site_label
 _atom_site_symmetry_multiplicity
 _atom_site_fract_x
 _atom_site_fract_y
 _atom_site_fract_z
 _atom_site_occupancy
  Sc  Sc0  1  0.67341309  0.67341309  0.38722060  1
  Sc  Sc1  1  0.19281589  0.67336675  0.38739253  1
  Sc  Sc2  1  0.67336675  0.19281589  0.38739253  1
  Se  Se3  1  0.62216400  0.62216400  0.16882438  1
  Br  Br4  1  0.72980840  0.72980840  0.62114759  1
  Br  Br5  1  0.11136652  0.11136652  0.17877102  1
  Br  Br6  1  0.23849757  0.23849757  0.61441644  1
  Br  Br7  1  0.11173879  0.62915169  0.17797877  1
  Br  Br8  1  0.62915169  0.11173879  0.17797877  1
  Br  Br9  1  0.72233744  0.23845684  0.61504369  1
  Br  Br10  1  0.23845684  0.72233744  0.61504369  1
