# generated using pymatgen
data_CsBiTeS
_symmetry_space_group_name_H-M   'P 1'
_cell_length_a   4.40464330
_cell_length_b   4.40603562
_cell_length_c   9.03573118
_cell_angle_alpha   75.89356453
_cell_angle_beta   75.89610237
_cell_angle_gamma   60.02396369
_symmetry_Int_Tables_number   1
_chemical_formula_structural   CsBiTeS
_chemical_formula_sum   'Cs1 Bi1 Te1 S1'
_cell_volume   145.76005007
_cell_formula_units_Z   1
loop_
 _symmetry_equiv_pos_site_id
 _symmetry_equiv_pos_as_xyz
  1  'x, y, z'
loop_
 _atom_site_type_symbol
 _atom_site_label
 _atom_site_symmetry_multiplicity
 _atom_site_fract_x
 _atom_site_fract_y
 _atom_site_fract_z
 _atom_site_occupancy
  Cs  Cs0  1  0.40593083  0.39156356  0.60825612  1
  Bi  Bi1  1  0.55760620  0.54153959  0.15394867  1
  Te  Te2  1  0.96108210  0.94583931  0.94312324  1
  S  S3  1  0.16714086  0.15185754  0.32501197  1
