# generated using pymatgen
data_SiCl4
_symmetry_space_group_name_H-M   'P 1'
_cell_length_a   11.69438806
_cell_length_b   11.94927832
_cell_length_c   18.25544615
_cell_angle_alpha   90.00000000
_cell_angle_beta   90.00000000
_cell_angle_gamma   90.00670274
_symmetry_Int_Tables_number   1
_chemical_formula_structural   SiCl4
_chemical_formula_sum   'Si4 Cl16'
_cell_volume   2551.00685714
_cell_formula_units_Z   4
loop_
 _symmetry_equiv_pos_site_id
 _symmetry_equiv_pos_as_xyz
  1  'x, y, z'
loop_
 _atom_site_type_symbol
 _atom_site_label
 _atom_site_symmetry_multiplicity
 _atom_site_fract_x
 _atom_site_fract_y
 _atom_site_fract_z
 _atom_site_occupancy
  Si  Si0  1  0.94658466  0.72187269  0.48416598  1
  Si  Si1  1  0.44606038  0.77849258  0.51566433  1
  Si  Si2  1  0.05359118  0.28311817  0.51351263  1
  Si  Si3  1  0.55369780  0.21648036  0.48667702  1
  Cl  Cl4  1  0.40975473  0.62200147  0.55308238  1
  Cl  Cl5  1  0.06423697  0.64888427  0.41744011  1
  Cl  Cl6  1  0.56295950  0.85110082  0.58311667  1
  Cl  Cl7  1  0.91120914  0.87835903  0.44638945  1
  Cl  Cl8  1  0.59278662  0.36965765  0.44482648  1
  Cl  Cl9  1  0.93655750  0.35957393  0.57902768  1
  Cl  Cl10  1  0.43679523  0.14062524  0.42075135  1
  Cl  Cl11  1  0.09268146  0.13040048  0.55606486  1
  Cl  Cl12  1  0.30020916  0.87156701  0.51499753  1
  Cl  Cl13  1  0.80052703  0.62908094  0.48405503  1
  Cl  Cl14  1  0.69826951  0.12172013  0.49105905  1
  Cl  Cl15  1  0.19814977  0.37790992  0.50879771  1
  Cl  Cl16  1  0.00888849  0.73127605  0.58791992  1
  Cl  Cl17  1  0.50972712  0.76926704  0.41223977  1
  Cl  Cl18  1  0.98869497  0.26473565  0.41094233  1
  Cl  Cl19  1  0.48861874  0.23387659  0.58926973  1
