# generated using pymatgen
data_RbH3O2
_symmetry_space_group_name_H-M   'P 1'
_cell_length_a   4.12000000
_cell_length_b   5.98752737
_cell_length_c   6.08000000
_cell_angle_alpha   90.00000000
_cell_angle_beta   90.00000000
_cell_angle_gamma   110.12372543
_symmetry_Int_Tables_number   1
_chemical_formula_structural   RbH3O2
_chemical_formula_sum   'Rb2 H6 O4'
_cell_volume   140.82885121
_cell_formula_units_Z   2
loop_
 _symmetry_equiv_pos_site_id
 _symmetry_equiv_pos_as_xyz
  1  'x, y, z'
loop_
 _atom_site_type_symbol
 _atom_site_label
 _atom_site_symmetry_multiplicity
 _atom_site_fract_x
 _atom_site_fract_y
 _atom_site_fract_z
 _atom_site_occupancy
  Rb  Rb10  1  0.84821000  0.69642000  0.25000000  1.0
  Rb  Rb11  1  0.15179000  0.30358000  0.75000000  1.0
  H  H0  1  0.52400000  0.04800000  0.07000000  1.0
  H  H1  1  0.47600000  0.95200000  0.57000000  1.0
  H  H2  1  0.31200000  0.22400000  0.29000000  1.0
  H  H3  1  0.68800000  0.77600000  0.79000000  1.0
  H  H4  1  0.08800000  0.77600000  0.79000000  1.0
  H  H5  1  0.91200000  0.22400000  0.29000000  1.0
  O  O6  1  0.83680000  0.67360000  0.75000000  1.0
  O  O7  1  0.46820000  0.93640000  0.85410000  1.0
  O  O8  1  0.16320000  0.32640000  0.25000000  1.0
  O  O9  1  0.53180000  0.06360000  0.35410000  1.0
