# generated using pymatgen
data_SbH
_symmetry_space_group_name_H-M   'P 1'
_cell_length_a   4.09903199
_cell_length_b   4.10088572
_cell_length_c   8.20561491
_cell_angle_alpha   92.61416927
_cell_angle_beta   103.15741013
_cell_angle_gamma   119.95159124
_symmetry_Int_Tables_number   1
_chemical_formula_structural   SbH
_chemical_formula_sum   'Sb2 H2'
_cell_volume   114.28281080
_cell_formula_units_Z   2
loop_
 _symmetry_equiv_pos_site_id
 _symmetry_equiv_pos_as_xyz
  1  'x, y, z'
loop_
 _atom_site_type_symbol
 _atom_site_label
 _atom_site_symmetry_multiplicity
 _atom_site_fract_x
 _atom_site_fract_y
 _atom_site_fract_z
 _atom_site_occupancy
  Sb  Sb0  1  0.90906155  0.93187988  0.86309415  1
  Sb  Sb1  1  0.38269568  0.68719196  0.07323993  1
  H  H2  1  0.29882068  0.09070361  0.42113342  1
  H  H3  1  0.34872210  0.23344455  0.49764250  1
