# generated using pymatgen
data_NaZrNO
_symmetry_space_group_name_H-M   'P 1'
_cell_length_a   3.27039757
_cell_length_b   3.27041328
_cell_length_c   6.13532569
_cell_angle_alpha   74.60259310
_cell_angle_beta   74.59088529
_cell_angle_gamma   60.00072050
_symmetry_Int_Tables_number   1
_chemical_formula_structural   NaZrNO
_chemical_formula_sum   'Na1 Zr1 N1 O1'
_cell_volume   54.09072464
_cell_formula_units_Z   1
loop_
 _symmetry_equiv_pos_site_id
 _symmetry_equiv_pos_as_xyz
  1  'x, y, z'
loop_
 _atom_site_type_symbol
 _atom_site_label
 _atom_site_symmetry_multiplicity
 _atom_site_fract_x
 _atom_site_fract_y
 _atom_site_fract_z
 _atom_site_occupancy
  Na  Na0  1  0.60549090  0.41686629  0.35785197  1
  Zr  Zr1  1  0.42956837  0.24076658  0.88441833  1
  N  N2  1  0.03773413  0.84898259  0.06054828  1
  O  O3  1  0.83544660  0.64628453  0.66684143  1
