# generated using pymatgen
data_HgCl2
_symmetry_space_group_name_H-M   'P 1'
_cell_length_a   4.13642571
_cell_length_b   4.13642571
_cell_length_c   12.19918239
_cell_angle_alpha   90.00000000
_cell_angle_beta   90.00000000
_cell_angle_gamma   107.87274183
_symmetry_Int_Tables_number   1
_chemical_formula_structural   HgCl2
_chemical_formula_sum   'Hg2 Cl4'
_cell_volume   198.65511044
_cell_formula_units_Z   2
loop_
 _symmetry_equiv_pos_site_id
 _symmetry_equiv_pos_as_xyz
  1  'x, y, z'
loop_
 _atom_site_type_symbol
 _atom_site_label
 _atom_site_symmetry_multiplicity
 _atom_site_fract_x
 _atom_site_fract_y
 _atom_site_fract_z
 _atom_site_occupancy
  Hg  Hg0  1  0.66825767  0.33174233  0.49985654  1
  Hg  Hg1  1  0.33174233  0.66825767  0.99985654  1
  Cl  Cl2  1  0.60515286  0.39484714  0.12061254  1
  Cl  Cl3  1  0.39484714  0.60515286  0.62061254  1
  Cl  Cl4  1  0.05777276  0.94222724  0.87939692  1
  Cl  Cl5  1  0.94222724  0.05777276  0.37939692  1
