# generated using pymatgen
data_Li2TlAgI4
_symmetry_space_group_name_H-M   'P 1'
_cell_length_a   8.16000627
_cell_length_b   8.16000627
_cell_length_c   8.16000627
_cell_angle_alpha   129.16002856
_cell_angle_beta   129.13941733
_cell_angle_gamma   74.76978346
_symmetry_Int_Tables_number   1
_chemical_formula_structural   Li2TlAgI4
_chemical_formula_sum   'Li2 Tl1 Ag1 I4'
_cell_volume   318.31094836
_cell_formula_units_Z   1
loop_
 _symmetry_equiv_pos_site_id
 _symmetry_equiv_pos_as_xyz
  1  'x, y, z'
loop_
 _atom_site_type_symbol
 _atom_site_label
 _atom_site_symmetry_multiplicity
 _atom_site_fract_x
 _atom_site_fract_y
 _atom_site_fract_z
 _atom_site_occupancy
  Li  Li0  1  0.75003995  0.25003995  0.50000000  1
  Li  Li1  1  0.24996005  0.74996005  0.50000000  1
  Tl  Tl2  1  0.00000000  0.00000000  0.00000000  1
  Ag  Ag3  1  0.50000000  0.50000000  -0.00000000  1
  I  I4  1  0.57131060  0.13560378  0.00002188  1
  I  I5  1  0.86441810  0.86439622  0.43570682  1
  I  I6  1  0.13558190  0.57128872  0.99997812  1
  I  I7  1  0.42868940  0.42871128  0.56429318  1
