# generated using pymatgen
data_AuCl
_symmetry_space_group_name_H-M   'P 1'
_cell_length_a   6.78581000
_cell_length_b   7.73866000
_cell_length_c   9.77766000
_cell_angle_alpha   90.00000000
_cell_angle_beta   90.00000000
_cell_angle_gamma   90.00000000
_symmetry_Int_Tables_number   1
_chemical_formula_structural   AuCl
_chemical_formula_sum   'Au8 Cl8'
_cell_volume   513.45500673
_cell_formula_units_Z   8
loop_
 _symmetry_equiv_pos_site_id
 _symmetry_equiv_pos_as_xyz
  1  'x, y, z'
loop_
 _atom_site_type_symbol
 _atom_site_label
 _atom_site_symmetry_multiplicity
 _atom_site_fract_x
 _atom_site_fract_y
 _atom_site_fract_z
 _atom_site_occupancy
  Au  Au0  1  0.48167000  0.01429000  0.62220000  1
  Au  Au1  1  0.98167000  0.48571000  0.37780000  1
  Au  Au2  1  0.51833000  0.51429000  0.87780000  1
  Au  Au3  1  0.01833000  0.98571000  0.12220000  1
  Au  Au4  1  0.23070000  0.81226000  0.36165000  1
  Au  Au5  1  0.73070000  0.68774000  0.63835000  1
  Au  Au6  1  0.76930000  0.31226000  0.13835000  1
  Au  Au7  1  0.26930000  0.18774000  0.86165000  1
  Cl  Cl8  1  0.21137000  0.06977000  0.48322000  1
  Cl  Cl9  1  0.71137000  0.43023000  0.51678000  1
  Cl  Cl10  1  0.78863000  0.56977000  0.01678000  1
  Cl  Cl11  1  0.28863000  0.93023000  0.98322000  1
  Cl  Cl12  1  0.26642000  0.54577000  0.25178000  1
  Cl  Cl13  1  0.76642000  0.95423000  0.74822000  1
  Cl  Cl14  1  0.73358000  0.04577000  0.24822000  1
  Cl  Cl15  1  0.23358000  0.45423000  0.75178000  1
