# generated using pymatgen
data_ZnIBr
_symmetry_space_group_name_H-M   'P 1'
_cell_length_a   6.66058898
_cell_length_b   6.97200349
_cell_length_c   7.45448689
_cell_angle_alpha   93.45128302
_cell_angle_beta   113.30511514
_cell_angle_gamma   118.43227393
_symmetry_Int_Tables_number   1
_chemical_formula_structural   ZnIBr
_chemical_formula_sum   'Zn2 I2 Br2'
_cell_volume   266.00677619
_cell_formula_units_Z   2
loop_
 _symmetry_equiv_pos_site_id
 _symmetry_equiv_pos_as_xyz
  1  'x, y, z'
loop_
 _atom_site_type_symbol
 _atom_site_label
 _atom_site_symmetry_multiplicity
 _atom_site_fract_x
 _atom_site_fract_y
 _atom_site_fract_z
 _atom_site_occupancy
  Zn  Zn0  1  0.08952153  0.48348727  0.94413592  1
  Zn  Zn1  1  0.53971525  0.21005970  0.94551403  1
  I  I2  1  0.13726988  0.88863555  0.95700968  1
  I  I3  1  0.62684461  0.16533974  0.63266154  1
  Br  Br4  1  0.99020993  0.37277859  0.22438096  1
  Br  Br5  1  0.48840881  0.54448915  0.96656786  1
