# generated using pymatgen
data_LiY2TaO6
_symmetry_space_group_name_H-M   'P 1'
_cell_length_a   5.98080345
_cell_length_b   5.98080345
_cell_length_c   5.98080345
_cell_angle_alpha   55.58571828
_cell_angle_beta   55.58571828
_cell_angle_gamma   55.58571828
_symmetry_Int_Tables_number   1
_chemical_formula_structural   LiY2TaO6
_chemical_formula_sum   'Li1 Y2 Ta1 O6'
_cell_volume   135.77519615
_cell_formula_units_Z   1
loop_
 _symmetry_equiv_pos_site_id
 _symmetry_equiv_pos_as_xyz
  1  'x, y, z'
loop_
 _atom_site_type_symbol
 _atom_site_label
 _atom_site_symmetry_multiplicity
 _atom_site_fract_x
 _atom_site_fract_y
 _atom_site_fract_z
 _atom_site_occupancy
  Li  Li0  1  0.77701696  0.77701696  0.77701696  1
  Y  Y1  1  0.52561496  0.52561496  0.52561496  1
  Y  Y2  1  0.02464582  0.02464582  0.02464582  1
  Ta  Ta3  1  0.32001898  0.32001898  0.32001898  1
  O  O4  1  0.96594600  0.58025595  0.23183553  1
  O  O5  1  0.58025595  0.23183553  0.96594600  1
  O  O6  1  0.23183553  0.96594600  0.58025595  1
  O  O7  1  0.12516080  0.42469847  0.68655657  1
  O  O8  1  0.42469847  0.68655657  0.12516080  1
  O  O9  1  0.68655657  0.12516080  0.42469847  1
