# generated using pymatgen
data_MgH4
_symmetry_space_group_name_H-M   'P 1'
_cell_length_a   5.16280980
_cell_length_b   5.16280980
_cell_length_c   20.34340726
_cell_angle_alpha   90.00000000
_cell_angle_beta   90.00000000
_cell_angle_gamma   120.00000000
_symmetry_Int_Tables_number   1
_chemical_formula_structural   MgH4
_chemical_formula_sum   'Mg3 H12'
_cell_volume   469.59836513
_cell_formula_units_Z   3
loop_
 _symmetry_equiv_pos_site_id
 _symmetry_equiv_pos_as_xyz
  1  'x, y, z'
loop_
 _atom_site_type_symbol
 _atom_site_label
 _atom_site_symmetry_multiplicity
 _atom_site_fract_x
 _atom_site_fract_y
 _atom_site_fract_z
 _atom_site_occupancy
  Mg  Mg0  1  0.33330272  0.00000000  0.41358450  1
  Mg  Mg1  1  0.00000000  0.33330272  0.41358450  1
  Mg  Mg2  1  0.66669729  0.66669729  0.41358450  1
  H  H3  1  0.37131971  0.28740884  0.62961969  1
  H  H4  1  0.71259116  0.08391087  0.62961969  1
  H  H5  1  0.91608913  0.62868029  0.62961969  1
  H  H6  1  0.28740884  0.37131971  0.62961969  1
  H  H7  1  0.08391087  0.71259116  0.62961969  1
  H  H8  1  0.62868029  0.91608913  0.62961969  1
  H  H9  1  0.66653399  0.00000000  0.36695930  1
  H  H10  1  0.00000000  0.66653399  0.36695930  1
  H  H11  1  0.33346601  0.33346601  0.36695930  1
  H  H12  1  0.33333333  0.66666667  0.46026010  1
  H  H13  1  0.66666667  0.33333333  0.46026010  1
  H  H14  1  0.00000000  0.00000000  0.46013004  1
