# generated using pymatgen
data_Li2CaHfF8
_symmetry_space_group_name_H-M   'P 1'
_cell_length_a   5.10630000
_cell_length_b   5.10630000
_cell_length_c   6.38200624
_cell_angle_alpha   113.58158249
_cell_angle_beta   113.58158249
_cell_angle_gamma   90.00000000
_symmetry_Int_Tables_number   1
_chemical_formula_structural   Li2CaHfF8
_chemical_formula_sum   'Li2 Ca1 Hf1 F8'
_cell_volume   137.21339480
_cell_formula_units_Z   1
loop_
 _symmetry_equiv_pos_site_id
 _symmetry_equiv_pos_as_xyz
  1  'x, y, z'
loop_
 _atom_site_type_symbol
 _atom_site_label
 _atom_site_symmetry_multiplicity
 _atom_site_fract_x
 _atom_site_fract_y
 _atom_site_fract_z
 _atom_site_occupancy
  Li  Li10  1  0.75000000  0.25000000  0.50000000  1.0
  Li  Li11  1  0.50000000  0.50000000  0.00000000  1.0
  Ca  Ca0  1  0.00000000  0.00000000  0.00000000  1.0
  Hf  Hf9  1  0.25000000  0.75000000  0.50000000  1.0
  F  F1  1  0.63360000  0.60900000  0.64080000  1.0
  F  F2  1  0.55700000  0.12250000  0.82040000  1.0
  F  F3  1  0.39100000  0.99280000  0.35920000  1.0
  F  F4  1  0.96820000  0.36640000  0.35920000  1.0
  F  F5  1  0.00720000  0.03180000  0.64080000  1.0
  F  F6  1  0.87750000  0.73660000  0.17960000  1.0
  F  F7  1  0.26340000  0.69790000  0.82040000  1.0
  F  F8  1  0.30210000  0.44300000  0.17960000  1.0
