# generated using pymatgen
data_CsSiF5
_symmetry_space_group_name_H-M   'P 1'
_cell_length_a   6.24959932
_cell_length_b   6.24959932
_cell_length_c   6.24959932
_cell_angle_alpha   130.11552496
_cell_angle_beta   115.83808823
_cell_angle_gamma   85.40221590
_symmetry_Int_Tables_number   1
_chemical_formula_structural   CsSiF5
_chemical_formula_sum   'Cs1 Si1 F5'
_cell_volume   160.71037473
_cell_formula_units_Z   1
loop_
 _symmetry_equiv_pos_site_id
 _symmetry_equiv_pos_as_xyz
  1  'x, y, z'
loop_
 _atom_site_type_symbol
 _atom_site_label
 _atom_site_symmetry_multiplicity
 _atom_site_fract_x
 _atom_site_fract_y
 _atom_site_fract_z
 _atom_site_occupancy
  Cs  Cs0  1  0.00000000  0.00871886  0.00871886  1
  Si  Si1  1  0.50000000  0.41492707  0.91492707  1
  F  F2  1  0.68281065  0.61376685  0.93095620  1
  F  F3  1  0.50000000  0.10409896  0.60409896  1
  F  F4  1  0.31718935  0.24814555  0.93095620  1
  F  F5  1  0.27147126  0.53982086  0.81129212  1
  F  F6  1  0.72852874  0.53982086  0.26834960  1
