# generated using pymatgen
data_H9O3F
_symmetry_space_group_name_H-M   'P 1'
_cell_length_a   7.28476023
_cell_length_b   7.28476023
_cell_length_c   6.96546552
_cell_angle_alpha   61.99245992
_cell_angle_beta   61.99245992
_cell_angle_gamma   84.45325545
_symmetry_Int_Tables_number   1
_chemical_formula_structural   H9O3F
_chemical_formula_sum   'H18 O6 F2'
_cell_volume   284.47037993
_cell_formula_units_Z   2
loop_
 _symmetry_equiv_pos_site_id
 _symmetry_equiv_pos_as_xyz
  1  'x, y, z'
loop_
 _atom_site_type_symbol
 _atom_site_label
 _atom_site_symmetry_multiplicity
 _atom_site_fract_x
 _atom_site_fract_y
 _atom_site_fract_z
 _atom_site_occupancy
  H  H0  1  0.74826603  0.93856409  0.58103841  1
  H  H1  1  0.93856409  0.74826603  0.08103841  1
  H  H2  1  0.28809825  0.78588240  0.32237682  1
  H  H3  1  0.78588240  0.28809825  0.82237682  1
  H  H4  1  0.83909392  0.84523237  0.28609342  1
  H  H5  1  0.84523237  0.83909392  0.78609342  1
  H  H6  1  0.39492850  0.21549395  0.64276695  1
  H  H7  1  0.21549395  0.39492850  0.14276695  1
  H  H8  1  0.31949138  0.11345199  0.72661864  1
  H  H9  1  0.11345199  0.31949138  0.22661864  1
  H  H10  1  0.49092022  0.94646765  0.38919682  1
  H  H11  1  0.94646765  0.49092022  0.88919682  1
  H  H12  1  0.75487651  0.07920535  0.72786442  1
  H  H13  1  0.07920535  0.75487651  0.22786442  1
  H  H14  1  0.14247569  0.56108660  0.50191616  1
  H  H15  1  0.56108660  0.14247569  0.00191616  1
  H  H16  1  0.05793028  0.28921432  0.89178255  1
  H  H17  1  0.28921432  0.05793028  0.39178255  1
  O  O18  1  0.39482078  0.98809023  0.31221561  1
  O  O19  1  0.98809023  0.39482078  0.81221561  1
  O  O20  1  0.97593460  0.82857183  0.15156927  1
  O  O21  1  0.82857183  0.97593460  0.65156927  1
  O  O22  1  0.21774111  0.67310420  0.32415221  1
  O  O23  1  0.67310420  0.21774111  0.82415221  1
  F  F24  1  0.88234171  0.66412984  0.96455537  1
  F  F25  1  0.66412984  0.88234171  0.46455537  1
