# generated using pymatgen
data_Tl2S
_symmetry_space_group_name_H-M   'P 1'
_cell_length_a   4.03121719
_cell_length_b   7.24222982
_cell_length_c   18.69435200
_cell_angle_alpha   90.00000000
_cell_angle_beta   90.00000000
_cell_angle_gamma   90.94602842
_symmetry_Int_Tables_number   1
_chemical_formula_structural   Tl2S
_chemical_formula_sum   'Tl4 S2'
_cell_volume   545.70723683
_cell_formula_units_Z   2
loop_
 _symmetry_equiv_pos_site_id
 _symmetry_equiv_pos_as_xyz
  1  'x, y, z'
loop_
 _atom_site_type_symbol
 _atom_site_label
 _atom_site_symmetry_multiplicity
 _atom_site_fract_x
 _atom_site_fract_y
 _atom_site_fract_z
 _atom_site_occupancy
  Tl  Tl0  1  0.51296921  0.58837964  0.41079855  1
  Tl  Tl1  1  0.51728656  0.70705719  0.59862943  1
  Tl  Tl2  1  0.50538828  0.21862875  0.59129142  1
  Tl  Tl3  1  0.01000905  0.14352867  0.40156677  1
  S  S4  1  0.50643100  0.95040738  0.47798040  1
  S  S5  1  0.01174211  0.46848610  0.51973342  1
