# generated using pymatgen
data_BaAl2B2O7
_symmetry_space_group_name_H-M   'P 1'
_cell_length_a   5.00100000
_cell_length_b   5.00100000
_cell_length_c   8.62371979
_cell_angle_alpha   73.14467327
_cell_angle_beta   73.14467327
_cell_angle_gamma   60.00000000
_symmetry_Int_Tables_number   1
_chemical_formula_structural   BaAl2B2O7
_chemical_formula_sum   'Ba1 Al2 B2 O7'
_cell_volume   176.00344105
_cell_formula_units_Z   1
loop_
 _symmetry_equiv_pos_site_id
 _symmetry_equiv_pos_as_xyz
  1  'x, y, z'
loop_
 _atom_site_type_symbol
 _atom_site_label
 _atom_site_symmetry_multiplicity
 _atom_site_fract_x
 _atom_site_fract_y
 _atom_site_fract_z
 _atom_site_occupancy
  Ba  Ba4  1  0.00000000  0.00000000  0.00000000  1.0
  Al  Al0  1  0.43170000  0.43170000  0.70490000  1.0
  Al  Al1  1  0.56830000  0.56830000  0.29510000  1.0
  B  B2  1  0.26290000  0.26290000  0.21130000  1.0
  B  B3  1  0.73710000  0.73710000  0.78870000  1.0
  O  O5  1  0.52013000  0.04063000  0.79781000  1.0
  O  O6  1  0.64143000  0.52013000  0.79781000  1.0
  O  O7  1  0.04063000  0.64143000  0.79781000  1.0
  O  O8  1  0.50000000  0.50000000  0.50000000  1.0
  O  O9  1  0.95937000  0.47987000  0.20219000  1.0
  O  O10  1  0.35857000  0.95937000  0.20219000  1.0
  O  O11  1  0.47987000  0.35857000  0.20219000  1.0
