# generated using pymatgen
data_CsZnH6Ir
_symmetry_space_group_name_H-M   'P 1'
_cell_length_a   4.64218876
_cell_length_b   4.64218876
_cell_length_c   6.54679114
_cell_angle_alpha   90.00000000
_cell_angle_beta   90.00000000
_cell_angle_gamma   120.00000000
_symmetry_Int_Tables_number   1
_chemical_formula_structural   CsZnH6Ir
_chemical_formula_sum   'Cs1 Zn1 H6 Ir1'
_cell_volume   122.18129077
_cell_formula_units_Z   1
loop_
 _symmetry_equiv_pos_site_id
 _symmetry_equiv_pos_as_xyz
  1  'x, y, z'
loop_
 _atom_site_type_symbol
 _atom_site_label
 _atom_site_symmetry_multiplicity
 _atom_site_fract_x
 _atom_site_fract_y
 _atom_site_fract_z
 _atom_site_occupancy
  Cs  Cs0  1  0.00000000  0.00000000  0.00000000  1
  Zn  Zn1  1  0.33333333  0.66666667  0.50000000  1
  H  H2  1  0.37163231  0.31894559  0.34585906  1
  H  H3  1  0.37163231  0.05268672  0.65414094  1
  H  H4  1  0.94731328  0.31894559  0.65414094  1
  H  H5  1  0.68105441  0.62836769  0.65414094  1
  H  H6  1  0.94731328  0.62836769  0.34585906  1
  H  H7  1  0.68105441  0.05268672  0.34585906  1
  Ir  Ir8  1  0.66666667  0.33333333  0.50000000  1
