# generated using pymatgen
data_Li2MgGeCl6
_symmetry_space_group_name_H-M   'P 1'
_cell_length_a   6.49023650
_cell_length_b   6.49024277
_cell_length_c   7.03242343
_cell_angle_alpha   90.00873638
_cell_angle_beta   117.47621104
_cell_angle_gamma   119.99111979
_symmetry_Int_Tables_number   1
_chemical_formula_structural   Li2MgGeCl6
_chemical_formula_sum   'Li2 Mg1 Ge1 Cl6'
_cell_volume   217.11572502
_cell_formula_units_Z   1
loop_
 _symmetry_equiv_pos_site_id
 _symmetry_equiv_pos_as_xyz
  1  'x, y, z'
loop_
 _atom_site_type_symbol
 _atom_site_label
 _atom_site_symmetry_multiplicity
 _atom_site_fract_x
 _atom_site_fract_y
 _atom_site_fract_z
 _atom_site_occupancy
  Li  Li0  1  0.96749318  0.48382028  0.45132023  1
  Li  Li1  1  0.97574219  0.98786502  0.96380067  1
  Mg  Mg2  1  0.35665681  0.67844561  0.03482473  1
  Ge  Ge3  1  0.36172697  0.18065250  0.54226910  1
  Cl  Cl4  1  0.48383664  0.40775726  0.24699060  1
  Cl  Cl5  1  0.17081430  0.76308842  0.24696644  1
  Cl  Cl6  1  0.83922697  0.07613100  0.24701952  1
  Cl  Cl7  1  0.48421799  0.59853484  0.76066547  1
  Cl  Cl8  1  0.87502318  0.27646882  0.76070525  1
  Cl  Cl9  1  0.16206378  0.88563925  0.76063900  1
