# generated using pymatgen
data_SiCl4
_symmetry_space_group_name_H-M   'P 1'
_cell_length_a   10.08350344
_cell_length_b   10.08350344
_cell_length_c   17.72554976
_cell_angle_alpha   90.00000000
_cell_angle_beta   90.00000000
_cell_angle_gamma   120.00000000
_symmetry_Int_Tables_number   1
_chemical_formula_structural   SiCl4
_chemical_formula_sum   'Si2 Cl8'
_cell_volume   1560.82152990
_cell_formula_units_Z   2
loop_
 _symmetry_equiv_pos_site_id
 _symmetry_equiv_pos_as_xyz
  1  'x, y, z'
loop_
 _atom_site_type_symbol
 _atom_site_label
 _atom_site_symmetry_multiplicity
 _atom_site_fract_x
 _atom_site_fract_y
 _atom_site_fract_z
 _atom_site_occupancy
  Si  Si0  1  0.66666667  0.33333333  0.50079167  1
  Si  Si1  1  0.33333333  0.66666667  0.50079167  1
  Cl  Cl2  1  0.24619780  0.79721056  0.46136113  1
  Cl  Cl3  1  0.20278944  0.44898724  0.46136113  1
  Cl  Cl4  1  0.55101276  0.75380220  0.46136113  1
  Cl  Cl5  1  0.75380220  0.20278944  0.46136113  1
  Cl  Cl6  1  0.79721056  0.55101276  0.46136113  1
  Cl  Cl7  1  0.44898724  0.24619780  0.46136113  1
  Cl  Cl8  1  0.66666667  0.33333333  0.61512498  1
  Cl  Cl9  1  0.33333333  0.66666667  0.61512498  1
