# generated using pymatgen
data_AgBiF4
_symmetry_space_group_name_H-M   'P 1'
_cell_length_a   6.67301518
_cell_length_b   6.67301518
_cell_length_c   6.67301518
_cell_angle_alpha   108.90590352
_cell_angle_beta   108.90590352
_cell_angle_gamma   110.60786913
_symmetry_Int_Tables_number   1
_chemical_formula_structural   AgBiF4
_chemical_formula_sum   'Ag2 Bi2 F8'
_cell_volume   228.67355728
_cell_formula_units_Z   2
loop_
 _symmetry_equiv_pos_site_id
 _symmetry_equiv_pos_as_xyz
  1  'x, y, z'
loop_
 _atom_site_type_symbol
 _atom_site_label
 _atom_site_symmetry_multiplicity
 _atom_site_fract_x
 _atom_site_fract_y
 _atom_site_fract_z
 _atom_site_occupancy
  Ag  Ag0  1  0.25002467  0.75002468  0.50000000  1
  Ag  Ag1  1  0.00002468  0.00002468  0.00000000  1
  Bi  Bi2  1  0.74027111  0.24027111  0.50000000  1
  Bi  Bi3  1  0.49027111  0.49027111  0.00000000  1
  F  F4  1  0.27588823  0.08646625  0.81057802  1
  F  F5  1  0.72893790  0.52487301  0.79593511  1
  F  F6  1  0.33646625  0.02588823  0.31057801  1
  F  F7  1  0.77487301  0.47893790  0.29593511  1
  F  F8  1  0.71531022  0.02588823  0.68942198  1
  F  F9  1  0.18300279  0.47893790  0.70406489  1
  F  F10  1  0.72893790  0.93300279  0.20406489  1
  F  F11  1  0.27588823  0.46531022  0.18942198  1
