# generated using pymatgen
data_Zn2CdTe3
_symmetry_space_group_name_H-M   'P 1'
_cell_length_a   7.74950779
_cell_length_b   7.74950779
_cell_length_c   7.72285539
_cell_angle_alpha   80.51185642
_cell_angle_beta   80.51185642
_cell_angle_gamma   120.10379455
_symmetry_Int_Tables_number   1
_chemical_formula_structural   Zn2CdTe3
_chemical_formula_sum   'Zn4 Cd2 Te6'
_cell_volume   378.73182464
_cell_formula_units_Z   2
loop_
 _symmetry_equiv_pos_site_id
 _symmetry_equiv_pos_as_xyz
  1  'x, y, z'
loop_
 _atom_site_type_symbol
 _atom_site_label
 _atom_site_symmetry_multiplicity
 _atom_site_fract_x
 _atom_site_fract_y
 _atom_site_fract_z
 _atom_site_occupancy
  Zn  Zn0  1  0.42899320  0.59464191  0.99284288  1
  Zn  Zn1  1  0.26616282  0.75874118  0.49168220  1
  Zn  Zn2  1  0.59464191  0.42899320  0.49284288  1
  Zn  Zn3  1  0.75874118  0.26616282  0.99168220  1
  Cd  Cd4  1  0.92498418  0.09771490  0.49347077  1
  Cd  Cd5  1  0.09771490  0.92498418  0.99347077  1
  Te  Te6  1  0.23876530  0.05492133  0.60389334  1
  Te  Te7  1  0.05492133  0.23876530  0.10389334  1
  Te  Te8  1  0.40381845  0.88447630  0.12250597  1
  Te  Te9  1  0.88447630  0.40381845  0.62250597  1
  Te  Te10  1  0.70301279  0.53879864  0.12432683  1
  Te  Te11  1  0.53879864  0.70301279  0.62432683  1
