# generated using pymatgen
data_Rb2SnO3
_symmetry_space_group_name_H-M   'P 1'
_cell_length_a   5.88784200
_cell_length_b   6.67583166
_cell_length_c   6.67583166
_cell_angle_alpha   68.87108760
_cell_angle_beta   90.00000000
_cell_angle_gamma   90.00000000
_symmetry_Int_Tables_number   1
_chemical_formula_structural   Rb2SnO3
_chemical_formula_sum   'Rb4 Sn2 O6'
_cell_volume   244.76103898
_cell_formula_units_Z   2
loop_
 _symmetry_equiv_pos_site_id
 _symmetry_equiv_pos_as_xyz
  1  'x, y, z'
loop_
 _atom_site_type_symbol
 _atom_site_label
 _atom_site_symmetry_multiplicity
 _atom_site_fract_x
 _atom_site_fract_y
 _atom_site_fract_z
 _atom_site_occupancy
  Rb  Rb6  1  0.74490200  0.51763400  0.80669600  1.0
  Rb  Rb7  1  0.24490200  0.80669600  0.51763400  1.0
  Rb  Rb8  1  0.24490200  0.48236600  0.19330400  1.0
  Rb  Rb9  1  0.74490200  0.19330400  0.48236600  1.0
  Sn  Sn10  1  0.26209700  0.08768500  0.91231500  1.0
  Sn  Sn11  1  0.76209700  0.91231500  0.08768500  1.0
  O  O0  1  0.50640200  0.86604500  0.88821200  1.0
  O  O1  1  0.00640200  0.88821200  0.86604500  1.0
  O  O2  1  0.29529700  0.34575300  0.65424700  1.0
  O  O3  1  0.79529700  0.65424700  0.34575300  1.0
  O  O4  1  0.00640200  0.13395500  0.11178800  1.0
  O  O5  1  0.50640200  0.11178800  0.13395500  1.0
