# generated using pymatgen
data_LiHI2
_symmetry_space_group_name_H-M   'P 1'
_cell_length_a   4.56987227
_cell_length_b   7.74573222
_cell_length_c   7.78760737
_cell_angle_alpha   114.26195666
_cell_angle_beta   107.03998882
_cell_angle_gamma   90.02617866
_symmetry_Int_Tables_number   1
_chemical_formula_structural   LiHI2
_chemical_formula_sum   'Li2 H2 I4'
_cell_volume   237.95713057
_cell_formula_units_Z   2
loop_
 _symmetry_equiv_pos_site_id
 _symmetry_equiv_pos_as_xyz
  1  'x, y, z'
loop_
 _atom_site_type_symbol
 _atom_site_label
 _atom_site_symmetry_multiplicity
 _atom_site_fract_x
 _atom_site_fract_y
 _atom_site_fract_z
 _atom_site_occupancy
  Li  Li0  1  0.59358236  0.91116681  0.52892520  1
  Li  Li1  1  0.94924407  0.41085622  0.52783214  1
  H  H2  1  0.05237873  0.90999039  0.05364840  1
  H  H3  1  0.01491073  0.41012071  0.05315760  1
  I  I4  1  0.14323508  0.84243364  0.83827856  1
  I  I5  1  0.00120862  0.01146445  0.36372041  1
  I  I6  1  0.37671393  0.51156357  0.36340196  1
  I  I7  1  0.70840030  0.34224586  0.83802581  1
