# generated using pymatgen
data_MgCd2Te3
_symmetry_space_group_name_H-M   'P 1'
_cell_length_a   8.05768597
_cell_length_b   8.05768597
_cell_length_c   8.05605207
_cell_angle_alpha   80.39864657
_cell_angle_beta   80.39864657
_cell_angle_gamma   120.01367387
_symmetry_Int_Tables_number   1
_chemical_formula_structural   MgCd2Te3
_chemical_formula_sum   'Mg2 Cd4 Te6'
_cell_volume   426.95819637
_cell_formula_units_Z   2
loop_
 _symmetry_equiv_pos_site_id
 _symmetry_equiv_pos_as_xyz
  1  'x, y, z'
loop_
 _atom_site_type_symbol
 _atom_site_label
 _atom_site_symmetry_multiplicity
 _atom_site_fract_x
 _atom_site_fract_y
 _atom_site_fract_z
 _atom_site_occupancy
  Mg  Mg0  1  0.93003052  0.09553626  0.49213961  1
  Mg  Mg1  1  0.09553626  0.93003052  0.99213961  1
  Cd  Cd2  1  0.42866734  0.59447947  0.99231026  1
  Cd  Cd3  1  0.26100776  0.76318157  0.49251183  1
  Cd  Cd4  1  0.59447947  0.42866734  0.49231026  1
  Cd  Cd5  1  0.76318157  0.26100776  0.99251183  1
  Te  Te6  1  0.21496543  0.05336113  0.62102213  1
  Te  Te7  1  0.05336113  0.21496543  0.12102213  1
  Te  Te8  1  0.38301630  0.88730992  0.11547801  1
  Te  Te9  1  0.88730992  0.38301630  0.61547801  1
  Te  Te10  1  0.72566872  0.55780558  0.11526215  1
  Te  Te11  1  0.55780558  0.72566872  0.61526215  1
