# generated using pymatgen
data_Cd2GeS4
_symmetry_space_group_name_H-M   'P 1'
_cell_length_a   6.60757671
_cell_length_b   6.60757671
_cell_length_c   6.60757671
_cell_angle_alpha   126.01601228
_cell_angle_beta   125.99309111
_cell_angle_gamma   79.88066085
_symmetry_Int_Tables_number   1
_chemical_formula_structural   Cd2GeS4
_chemical_formula_sum   'Cd2 Ge1 S4'
_cell_volume   182.32469871
_cell_formula_units_Z   1
loop_
 _symmetry_equiv_pos_site_id
 _symmetry_equiv_pos_as_xyz
  1  'x, y, z'
loop_
 _atom_site_type_symbol
 _atom_site_label
 _atom_site_symmetry_multiplicity
 _atom_site_fract_x
 _atom_site_fract_y
 _atom_site_fract_z
 _atom_site_occupancy
  Cd  Cd0  1  0.24987075  0.74987074  0.50000000  1
  Cd  Cd1  1  0.75012926  0.25012925  0.50000000  1
  Ge  Ge2  1  0.50000000  0.50000000  0.00000000  1
  S  S3  1  0.16160669  0.62282519  0.00013540  1
  S  S4  1  0.62268979  0.16147129  0.99986460  1
  S  S5  1  0.37731021  0.37717481  0.53878150  1
  S  S6  1  0.83839331  0.83852871  0.46121850  1
