# generated using pymatgen
data_NaInSnS4
_symmetry_space_group_name_H-M   'P 1'
_cell_length_a   6.65894200
_cell_length_b   6.65894200
_cell_length_c   6.65894200
_cell_angle_alpha   122.80720275
_cell_angle_beta   122.80720275
_cell_angle_gamma   85.20288023
_symmetry_Int_Tables_number   1
_chemical_formula_structural   NaInSnS4
_chemical_formula_sum   'Na1 In1 Sn1 S4'
_cell_volume   199.16484715
_cell_formula_units_Z   1
loop_
 _symmetry_equiv_pos_site_id
 _symmetry_equiv_pos_as_xyz
  1  'x, y, z'
loop_
 _atom_site_type_symbol
 _atom_site_label
 _atom_site_symmetry_multiplicity
 _atom_site_fract_x
 _atom_site_fract_y
 _atom_site_fract_z
 _atom_site_occupancy
  Na  Na0  1  0.00000000  0.00000000  0.00000000  1
  In  In1  1  0.25000000  0.75000000  0.50000000  1
  Sn  Sn2  1  0.50000000  0.50000000  0.00000000  1
  S  S3  1  0.14169111  0.58927065  0.00598881  1
  S  S4  1  0.41072935  0.41671816  0.55242046  1
  S  S5  1  0.58328184  0.13570230  0.99401119  1
  S  S6  1  0.86429770  0.85830889  0.44757954  1
