# generated using pymatgen
data_Li2CuPS4
_symmetry_space_group_name_H-M   'P 1'
_cell_length_a   5.54950522
_cell_length_b   5.55038329
_cell_length_c   6.30582311
_cell_angle_alpha   116.10567589
_cell_angle_beta   116.09808918
_cell_angle_gamma   90.00167342
_symmetry_Int_Tables_number   1
_chemical_formula_structural   Li2CuPS4
_chemical_formula_sum   'Li2 Cu1 P1 S4'
_cell_volume   152.05262678
_cell_formula_units_Z   1
loop_
 _symmetry_equiv_pos_site_id
 _symmetry_equiv_pos_as_xyz
  1  'x, y, z'
loop_
 _atom_site_type_symbol
 _atom_site_label
 _atom_site_symmetry_multiplicity
 _atom_site_fract_x
 _atom_site_fract_y
 _atom_site_fract_z
 _atom_site_occupancy
  Li  Li0  1  0.98589860  0.48576522  0.97168174  1
  Li  Li1  1  0.23591270  0.23570855  0.47169254  1
  Cu  Cu2  1  0.48565204  0.98619966  0.97185100  1
  P  P3  1  0.73597169  0.73588462  0.47179743  1
  S  S4  1  0.08124558  0.64875284  0.71297584  1
  S  S5  1  0.82291195  0.83983654  0.23039676  1
  S  S6  1  0.40752977  0.39070096  0.23063851  1
  S  S7  1  0.63192968  0.06420461  0.71306818  1
