# generated using pymatgen
data_TaZn2GaN4
_symmetry_space_group_name_H-M   'P 1'
_cell_length_a   5.34403156
_cell_length_b   5.72199841
_cell_length_c   6.60571278
_cell_angle_alpha   90.00000000
_cell_angle_beta   90.00000000
_cell_angle_gamma   90.00000000
_symmetry_Int_Tables_number   1
_chemical_formula_structural   TaZn2GaN4
_chemical_formula_sum   'Ta2 Zn4 Ga2 N8'
_cell_volume   201.99305306
_cell_formula_units_Z   2
loop_
 _symmetry_equiv_pos_site_id
 _symmetry_equiv_pos_as_xyz
  1  'x, y, z'
loop_
 _atom_site_type_symbol
 _atom_site_label
 _atom_site_symmetry_multiplicity
 _atom_site_fract_x
 _atom_site_fract_y
 _atom_site_fract_z
 _atom_site_occupancy
  Ta  Ta0  1  0.49814867  0.83345152  0.50000000  1
  Ta  Ta1  1  0.99814867  0.16654848  0.00000000  1
  Zn  Zn2  1  0.49914194  0.33104922  0.24961451  1
  Zn  Zn3  1  0.49914194  0.33104922  0.75038549  1
  Zn  Zn4  1  0.99914194  0.66895078  0.74961451  1
  Zn  Zn5  1  0.99914194  0.66895078  0.25038549  1
  Ga  Ga6  1  0.99878317  0.17279158  0.50000000  1
  Ga  Ga7  1  0.49878317  0.82720842  0.00000000  1
  N  N8  1  0.36302729  0.14942124  0.00000000  1
  N  N9  1  0.86302729  0.85057876  0.50000000  1
  N  N10  1  0.36713436  0.15217407  0.50000000  1
  N  N11  1  0.86713436  0.84782593  0.00000000  1
  N  N12  1  0.38728332  0.67365529  0.74980017  1
  N  N13  1  0.88728332  0.32634471  0.24980017  1
  N  N14  1  0.88728332  0.32634471  0.75019983  1
  N  N15  1  0.38728332  0.67365529  0.25019983  1
