# generated using pymatgen
data_SiO2
_symmetry_space_group_name_H-M   'P 1'
_cell_length_a   4.77020020
_cell_length_b   6.57539986
_cell_length_c   6.57539986
_cell_angle_alpha   82.43946365
_cell_angle_beta   68.73200071
_cell_angle_gamma   68.73200071
_symmetry_Int_Tables_number   1
_chemical_formula_structural   SiO2
_chemical_formula_sum   'Si4 O8'
_cell_volume   179.10756946
_cell_formula_units_Z   4
loop_
 _symmetry_equiv_pos_site_id
 _symmetry_equiv_pos_as_xyz
  1  'x, y, z'
loop_
 _atom_site_type_symbol
 _atom_site_label
 _atom_site_symmetry_multiplicity
 _atom_site_fract_x
 _atom_site_fract_y
 _atom_site_fract_z
 _atom_site_occupancy
  Si  Si8  1  0.85161000  0.34825000  0.99663000  1.0
  Si  Si9  1  0.80014000  0.00337000  0.34825000  1.0
  Si  Si10  1  0.15176000  0.99663000  0.65175000  1.0
  Si  Si11  1  0.19649000  0.65175000  0.00337000  1.0
  O  O0  1  0.58014000  0.52609000  0.90983000  1.0
  O  O1  1  0.51003000  0.90983000  0.47391000  1.0
  O  O2  1  0.89377000  0.09017000  0.52609000  1.0
  O  O3  1  0.08099000  0.79674000  0.81022000  1.0
  O  O4  1  0.68795000  0.20326000  0.18978000  1.0
  O  O5  1  0.12227000  0.18978000  0.79674000  1.0
  O  O6  1  0.01606000  0.47391000  0.09017000  1.0
  O  O7  1  0.10879000  0.81022000  0.20326000  1.0
