# generated using pymatgen
data_H14C3NCl5
_symmetry_space_group_name_H-M   'P 1'
_cell_length_a   8.29908947
_cell_length_b   8.29908947
_cell_length_c   13.35030909
_cell_angle_alpha   83.96800618
_cell_angle_beta   83.96800618
_cell_angle_gamma   126.24158098
_symmetry_Int_Tables_number   1
_chemical_formula_structural   H14C3NCl5
_chemical_formula_sum   'H28 C6 N2 Cl10'
_cell_volume   721.29638865
_cell_formula_units_Z   2
loop_
 _symmetry_equiv_pos_site_id
 _symmetry_equiv_pos_as_xyz
  1  'x, y, z'
loop_
 _atom_site_type_symbol
 _atom_site_label
 _atom_site_symmetry_multiplicity
 _atom_site_fract_x
 _atom_site_fract_y
 _atom_site_fract_z
 _atom_site_occupancy
  H  H0  1  0.48128322  0.42714488  0.80742893  1
  H  H1  1  0.42714488  0.48128322  0.30742893  1
  H  H2  1  0.27716295  0.69308747  0.67390061  1
  H  H3  1  0.69308747  0.27716295  0.17390061  1
  H  H4  1  0.76230859  0.96191616  0.74559894  1
  H  H5  1  0.96191616  0.76230859  0.24559894  1
  H  H6  1  0.30511264  0.65758696  0.88348740  1
  H  H7  1  0.65758696  0.30511264  0.38348740  1
  H  H8  1  0.64509782  0.70468596  0.60854987  1
  H  H9  1  0.70468596  0.64509782  0.10854987  1
  H  H10  1  0.16284313  0.14871660  0.91551109  1
  H  H11  1  0.14871660  0.16284313  0.41551109  1
  H  H12  1  0.35421115  0.29892252  0.98749173  1
  H  H13  1  0.29892252  0.35421115  0.48749173  1
  H  H14  1  0.28999614  0.05673996  0.97010393  1
  H  H15  1  0.05673996  0.28999614  0.47010393  1
  H  H16  1  0.52908976  0.25203521  0.68993302  1
  H  H17  1  0.25203521  0.52908976  0.18993302  1
  H  H18  1  0.26408690  0.12531445  0.74367829  1
  H  H19  1  0.12531445  0.26408690  0.24367829  1
  H  H20  1  0.39165405  0.02851162  0.79175303  1
  H  H21  1  0.02851162  0.39165405  0.29175303  1
  H  H22  1  0.71321157  0.47430563  0.91336637  1
  H  H23  1  0.47430563  0.71321157  0.41336637  1
  H  H24  1  0.78586019  0.44862732  0.78792742  1
  H  H25  1  0.44862732  0.78586019  0.28792742  1
  H  H26  1  0.66073744  0.23724054  0.89545934  1
  H  H27  1  0.23724054  0.66073744  0.39545934  1
  C  C28  1  0.30690972  0.19272000  0.93503495  1
  C  C29  1  0.19272000  0.30690972  0.43503495  1
  C  C30  1  0.40922938  0.16653533  0.76010943  1
  C  C31  1  0.16653533  0.40922938  0.26010943  1
  C  C32  1  0.67197498  0.36979510  0.86035067  1
  C  C33  1  0.36979510  0.67197498  0.36035067  1
  N  N34  1  0.46860733  0.29766689  0.83851240  1
  N  N35  1  0.29766689  0.46860733  0.33851240  1
  Cl  Cl36  1  0.48501929  0.67917769  0.74968244  1
  Cl  Cl37  1  0.67917769  0.48501929  0.24968244  1
  Cl  Cl38  1  0.15208672  0.70948939  0.62879837  1
  Cl  Cl39  1  0.70948939  0.15208672  0.12879837  1
  Cl  Cl40  1  0.93191104  0.14774651  0.74052563  1
  Cl  Cl41  1  0.14774651  0.93191104  0.24052563  1
  Cl  Cl42  1  0.19104473  0.65190363  0.96260841  1
  Cl  Cl43  1  0.65190363  0.19104473  0.46260841  1
  Cl  Cl44  1  0.74072570  0.70340577  0.52336772  1
  Cl  Cl45  1  0.70340577  0.74072570  0.02336772  1
