# generated using pymatgen
data_Li3PS4
_symmetry_space_group_name_H-M   'P 1'
_cell_length_a   6.24075813
_cell_length_b   6.63756338
_cell_length_c   7.75549831
_cell_angle_alpha   90.00000000
_cell_angle_beta   90.00000000
_cell_angle_gamma   90.00000000
_symmetry_Int_Tables_number   1
_chemical_formula_structural   Li3PS4
_chemical_formula_sum   'Li6 P2 S8'
_cell_volume   321.25932295
_cell_formula_units_Z   2
loop_
 _symmetry_equiv_pos_site_id
 _symmetry_equiv_pos_as_xyz
  1  'x, y, z'
loop_
 _atom_site_type_symbol
 _atom_site_label
 _atom_site_symmetry_multiplicity
 _atom_site_fract_x
 _atom_site_fract_y
 _atom_site_fract_z
 _atom_site_occupancy
  Li  Li0  1  0.50971650  0.85560557  0.00000000  1
  Li  Li1  1  0.00117258  0.68292938  0.24381998  1
  Li  Li2  1  0.50117258  0.31707062  0.25618002  1
  Li  Li3  1  0.00971650  0.14439443  0.50000000  1
  Li  Li4  1  0.50117258  0.31707062  0.74381998  1
  Li  Li5  1  0.00117258  0.68292938  0.75618002  1
  P  P6  1  0.00093047  0.18209586  0.00000000  1
  P  P7  1  0.50093047  0.81790414  0.50000000  1
  S  S8  1  0.11146989  0.88960158  0.00000000  1
  S  S9  1  0.67071234  0.18997220  0.00000000  1
  S  S10  1  0.11004582  0.32692030  0.21823273  1
  S  S11  1  0.61004582  0.67307970  0.28176727  1
  S  S12  1  0.17071234  0.81002780  0.50000000  1
  S  S13  1  0.61146989  0.11039842  0.50000000  1
  S  S14  1  0.61004582  0.67307970  0.71823273  1
  S  S15  1  0.11004582  0.32692030  0.78176727  1
