# generated using pymatgen
data_LiAl(PS3)2
_symmetry_space_group_name_H-M   'P 1'
_cell_length_a   5.97416015
_cell_length_b   5.97416015
_cell_length_c   18.19842245
_cell_angle_alpha   90.00000000
_cell_angle_beta   90.00000000
_cell_angle_gamma   120.00000000
_symmetry_Int_Tables_number   1
_chemical_formula_structural   LiAl(PS3)2
_chemical_formula_sum   'Li1 Al1 P2 S6'
_cell_volume   562.49426069
_cell_formula_units_Z   1
loop_
 _symmetry_equiv_pos_site_id
 _symmetry_equiv_pos_as_xyz
  1  'x, y, z'
loop_
 _atom_site_type_symbol
 _atom_site_label
 _atom_site_symmetry_multiplicity
 _atom_site_fract_x
 _atom_site_fract_y
 _atom_site_fract_z
 _atom_site_occupancy
  Li  Li0  1  0.00000000  0.00000000  0.50000000  1
  Al  Al1  1  0.33333333  0.66666667  0.50000000  1
  P  P2  1  0.66666667  0.33333333  0.55997008  1
  P  P3  1  0.66666667  0.33333333  0.44002992  1
  S  S4  1  0.01067831  0.35937390  0.58787636  1
  S  S5  1  0.34869559  0.98932169  0.58787636  1
  S  S6  1  0.64062610  0.65130441  0.58787636  1
  S  S7  1  0.64062610  0.98932169  0.41212364  1
  S  S8  1  0.34869559  0.35937390  0.41212364  1
  S  S9  1  0.01067831  0.65130441  0.41212364  1
