# generated using pymatgen
data_Zr3Ti(PbO3)4
_symmetry_space_group_name_H-M   'P 1'
_cell_length_a   5.86739207
_cell_length_b   5.93287721
_cell_length_c   10.20525077
_cell_angle_alpha   72.78943755
_cell_angle_beta   73.31741229
_cell_angle_gamma   60.37044081
_symmetry_Int_Tables_number   1
_chemical_formula_structural   Zr3Ti(PbO3)4
_chemical_formula_sum   'Zr3 Ti1 Pb4 O12'
_cell_volume   290.69966696
_cell_formula_units_Z   1
loop_
 _symmetry_equiv_pos_site_id
 _symmetry_equiv_pos_as_xyz
  1  'x, y, z'
loop_
 _atom_site_type_symbol
 _atom_site_label
 _atom_site_symmetry_multiplicity
 _atom_site_fract_x
 _atom_site_fract_y
 _atom_site_fract_z
 _atom_site_occupancy
  Zr  Zr0  1  0.64938100  0.58746300  0.11366200  1
  Zr  Zr1  1  0.14641000  0.08621100  0.62208000  1
  Zr  Zr2  1  0.89654900  0.83890500  0.36819300  1
  Ti  Ti3  1  0.40021600  0.33347700  0.86652500  1
  Pb  Pb4  1  0.80122600  0.65653400  0.73985100  1
  Pb  Pb5  1  0.30608300  0.16559500  0.22333000  1
  Pb  Pb6  1  0.55428700  0.40896800  0.48508500  1
  Pb  Pb7  1  0.05801500  0.90230700  0.97924100  1
  O  O8  1  0.75298100  0.24589700  0.76870600  1
  O  O9  1  0.27556300  0.74548000  0.25854200  1
  O  O10  1  0.96809900  0.99289700  0.51558200  1
  O  O11  1  0.47235600  0.48887100  0.00696900  1
  O  O12  1  0.96531100  0.49528600  0.51272700  1
  O  O13  1  0.46701600  0.01453400  0.99790200  1
  O  O14  1  0.00316400  0.51751300  0.97814900  1
  O  O15  1  0.49091400  0.02486200  0.48365200  1
  O  O16  1  0.25845300  0.27235900  0.74156500  1
  O  O17  1  0.75112200  0.77662300  0.22824900  1
  O  O18  1  0.28037600  0.73664000  0.76037200  1
  O  O19  1  0.77907800  0.24857800  0.25741800  1
