# generated using pymatgen
data_Sr(GaS2)2
_symmetry_space_group_name_H-M   'P 1'
_cell_length_a   6.10736219
_cell_length_b   6.10736219
_cell_length_c   6.10736219
_cell_angle_alpha   104.09045587
_cell_angle_beta   104.09045587
_cell_angle_gamma   120.87008004
_symmetry_Int_Tables_number   1
_chemical_formula_structural   Sr(GaS2)2
_chemical_formula_sum   'Sr1 Ga2 S4'
_cell_volume   170.07271541
_cell_formula_units_Z   1
loop_
 _symmetry_equiv_pos_site_id
 _symmetry_equiv_pos_as_xyz
  1  'x, y, z'
loop_
 _atom_site_type_symbol
 _atom_site_label
 _atom_site_symmetry_multiplicity
 _atom_site_fract_x
 _atom_site_fract_y
 _atom_site_fract_z
 _atom_site_occupancy
  Sr  Sr0  1  0.50000000  0.50000000  0.00000000  1
  Ga  Ga1  1  1.00000000  0.50000000  0.50000000  1
  Ga  Ga2  1  0.50000000  -0.00000000  0.50000000  1
  S  S3  1  0.91463647  0.08536353  0.50000000  1
  S  S4  1  0.08536353  0.58536353  0.17072706  1
  S  S5  1  0.41463647  0.91463647  0.82927294  1
  S  S6  1  0.58536353  0.41463647  0.50000000  1
