# generated using pymatgen
data_ZnHBr
_symmetry_space_group_name_H-M   'P 1'
_cell_length_a   4.91693402
_cell_length_b   3.87031548
_cell_length_c   7.42366626
_cell_angle_alpha   74.89259609
_cell_angle_beta   90.00000000
_cell_angle_gamma   90.00000000
_symmetry_Int_Tables_number   1
_chemical_formula_structural   ZnHBr
_chemical_formula_sum   'Zn2 H2 Br2'
_cell_volume   136.39046439
_cell_formula_units_Z   2
loop_
 _symmetry_equiv_pos_site_id
 _symmetry_equiv_pos_as_xyz
  1  'x, y, z'
loop_
 _atom_site_type_symbol
 _atom_site_label
 _atom_site_symmetry_multiplicity
 _atom_site_fract_x
 _atom_site_fract_y
 _atom_site_fract_z
 _atom_site_occupancy
  Zn  Zn0  1  0.47145320  0.94439409  0.11194037  1
  Zn  Zn1  1  0.97145320  0.05560591  0.88805963  1
  H  H2  1  0.30965227  0.04668715  0.90683975  1
  H  H3  1  0.80965227  0.95331284  0.09316025  1
  Br  Br4  1  0.34531161  0.34755147  0.30540214  1
  Br  Br5  1  0.84531161  0.65244853  0.69459786  1
