# generated using pymatgen
data_HfAsO4
_symmetry_space_group_name_H-M   'P 1'
_cell_length_a   5.50591461
_cell_length_b   5.50601943
_cell_length_c   6.58616292
_cell_angle_alpha   74.63419884
_cell_angle_beta   74.63599179
_cell_angle_gamma   74.48118145
_symmetry_Int_Tables_number   1
_chemical_formula_structural   HfAsO4
_chemical_formula_sum   'Hf2 As2 O8'
_cell_volume   181.41635275
_cell_formula_units_Z   2
loop_
 _symmetry_equiv_pos_site_id
 _symmetry_equiv_pos_as_xyz
  1  'x, y, z'
loop_
 _atom_site_type_symbol
 _atom_site_label
 _atom_site_symmetry_multiplicity
 _atom_site_fract_x
 _atom_site_fract_y
 _atom_site_fract_z
 _atom_site_occupancy
  Hf  Hf0  1  0.25064502  0.75060248  0.89235767  1
  Hf  Hf1  1  0.78566711  0.28559911  0.07901866  1
  As  As2  1  0.69549110  0.19553686  0.65336283  1
  As  As3  1  0.33233451  0.83229311  0.31335100  1
  O  O4  1  0.49508289  0.99543421  0.68885756  1
  O  O5  1  0.81038429  0.31019937  0.38923721  1
  O  O6  1  0.09428589  0.95999875  0.13830572  1
  O  O7  1  0.53924412  0.03947251  0.19211580  1
  O  O8  1  0.46023534  0.59437718  0.13819695  1
  O  O9  1  0.94523615  0.06848895  0.79183212  1
  O  O10  1  0.02284090  0.52260170  0.93155274  1
  O  O11  1  0.56865368  0.44539480  0.79171073  1
