# generated using pymatgen
data_BaZnO2
_symmetry_space_group_name_H-M   'P 1'
_cell_length_a   5.92700000
_cell_length_b   5.92700000
_cell_length_c   6.70700000
_cell_angle_alpha   90.00000000
_cell_angle_beta   90.00000000
_cell_angle_gamma   120.00000000
_symmetry_Int_Tables_number   1
_chemical_formula_structural   BaZnO2
_chemical_formula_sum   'Ba3 Zn3 O6'
_cell_volume   204.04633216
_cell_formula_units_Z   3
loop_
 _symmetry_equiv_pos_site_id
 _symmetry_equiv_pos_as_xyz
  1  'x, y, z'
loop_
 _atom_site_type_symbol
 _atom_site_label
 _atom_site_symmetry_multiplicity
 _atom_site_fract_x
 _atom_site_fract_y
 _atom_site_fract_z
 _atom_site_occupancy
  Ba  Ba0  1  0.65000000  0.00000000  0.83333333  1.0
  Ba  Ba1  1  0.00000000  0.65000000  0.16666667  1.0
  Ba  Ba2  1  0.35000000  0.35000000  0.50000000  1.0
  Zn  Zn3  1  0.50000000  0.50000000  0.00000000  1.0
  Zn  Zn4  1  0.00000000  0.50000000  0.66666667  1.0
  Zn  Zn5  1  0.50000000  0.00000000  0.33333333  1.0
  O  O6  1  0.19000000  0.41000000  0.85000000  1.0
  O  O7  1  0.59000000  0.78000000  0.18333333  1.0
  O  O8  1  0.22000000  0.81000000  0.51666667  1.0
  O  O9  1  0.78000000  0.59000000  0.81666667  1.0
  O  O10  1  0.41000000  0.19000000  0.15000000  1.0
  O  O11  1  0.81000000  0.22000000  0.48333333  1.0
