# generated using pymatgen
data_Mg(AlS2)2
_symmetry_space_group_name_H-M   'P 1'
_cell_length_a   5.56506626
_cell_length_b   5.56523288
_cell_length_c   6.44147769
_cell_angle_alpha   115.58971723
_cell_angle_beta   115.58812969
_cell_angle_gamma   89.99672060
_symmetry_Int_Tables_number   1
_chemical_formula_structural   Mg(AlS2)2
_chemical_formula_sum   'Mg1 Al2 S4'
_cell_volume   157.96013030
_cell_formula_units_Z   1
loop_
 _symmetry_equiv_pos_site_id
 _symmetry_equiv_pos_as_xyz
  1  'x, y, z'
loop_
 _atom_site_type_symbol
 _atom_site_label
 _atom_site_symmetry_multiplicity
 _atom_site_fract_x
 _atom_site_fract_y
 _atom_site_fract_z
 _atom_site_occupancy
  Mg  Mg0  1  0.49997338  0.49994696  0.99995263  1
  Al  Al1  1  0.24999724  0.74999898  0.50000104  1
  Al  Al2  1  0.99999988  0.00000974  0.00001359  1
  S  S3  1  0.62756841  0.64190197  0.73865285  1
  S  S4  1  0.11108690  0.09677746  0.73864166  1
  S  S5  1  0.90325221  0.37248790  0.26138784  1
  S  S6  1  0.35812197  0.88887698  0.26135038  1
