# generated using pymatgen
data_PH5I2
_symmetry_space_group_name_H-M   'P 1'
_cell_length_a   5.02331468
_cell_length_b   5.69465260
_cell_length_c   7.49067207
_cell_angle_alpha   109.77748011
_cell_angle_beta   108.90248318
_cell_angle_gamma   89.51548616
_symmetry_Int_Tables_number   1
_chemical_formula_structural   PH5I2
_chemical_formula_sum   'P1 H5 I2'
_cell_volume   189.52926453
_cell_formula_units_Z   1
loop_
 _symmetry_equiv_pos_site_id
 _symmetry_equiv_pos_as_xyz
  1  'x, y, z'
loop_
 _atom_site_type_symbol
 _atom_site_label
 _atom_site_symmetry_multiplicity
 _atom_site_fract_x
 _atom_site_fract_y
 _atom_site_fract_z
 _atom_site_occupancy
  P  P0  1  0.99527143  0.17920023  0.15075853  1
  H  H1  1  0.07269877  0.44347029  0.80444537  1
  H  H2  1  0.04270796  0.12152656  0.96586805  1
  H  H3  1  0.82769254  0.97187766  0.13981390  1
  H  H4  1  0.83491722  0.38745424  0.17177448  1
  H  H5  1  0.25385281  0.23739490  0.31324092  1
  I  I6  1  0.37766244  0.66122631  0.08860634  1
  I  I7  1  0.81819482  0.22084578  0.58848739  1
