# generated using pymatgen
data_HI
_symmetry_space_group_name_H-M   'P 1'
_cell_length_a   5.31887721
_cell_length_b   6.19510292
_cell_length_c   21.27260175
_cell_angle_alpha   90.00000000
_cell_angle_beta   90.00000000
_cell_angle_gamma   90.00000000
_symmetry_Int_Tables_number   1
_chemical_formula_structural   HI
_chemical_formula_sum   'H4 I4'
_cell_volume   700.95332444
_cell_formula_units_Z   4
loop_
 _symmetry_equiv_pos_site_id
 _symmetry_equiv_pos_as_xyz
  1  'x, y, z'
loop_
 _atom_site_type_symbol
 _atom_site_label
 _atom_site_symmetry_multiplicity
 _atom_site_fract_x
 _atom_site_fract_y
 _atom_site_fract_z
 _atom_site_occupancy
  H  H0  1  0.44568000  0.77539670  0.14743381  1
  H  H1  1  0.55431999  0.77539670  0.85256619  1
  H  H2  1  0.44568000  0.27539670  0.85256619  1
  H  H3  1  0.55431999  0.27539670  0.14743381  1
  I  I4  1  0.76812563  0.07821329  0.14714313  1
  I  I5  1  0.23187438  0.07821329  0.85285687  1
  I  I6  1  0.76812563  0.57821329  0.85285687  1
  I  I7  1  0.23187438  0.57821329  0.14714313  1
