# generated using pymatgen
data_Nb2ZnO6
_symmetry_space_group_name_H-M   'P 1'
_cell_length_a   8.85516544
_cell_length_b   8.85516544
_cell_length_c   4.64719106
_cell_angle_alpha   90.00000000
_cell_angle_beta   90.00000000
_cell_angle_gamma   120.00000000
_symmetry_Int_Tables_number   1
_chemical_formula_structural   Nb2ZnO6
_chemical_formula_sum   'Nb6 Zn3 O18'
_cell_volume   315.58366751
_cell_formula_units_Z   3
loop_
 _symmetry_equiv_pos_site_id
 _symmetry_equiv_pos_as_xyz
  1  'x, y, z'
loop_
 _atom_site_type_symbol
 _atom_site_label
 _atom_site_symmetry_multiplicity
 _atom_site_fract_x
 _atom_site_fract_y
 _atom_site_fract_z
 _atom_site_occupancy
  Nb  Nb0  1  0.63068832  0.63068832  -0.00000000  1
  Nb  Nb1  1  0.29597001  0.29597001  0.50000000  1
  Nb  Nb2  1  -0.00000000  0.36931168  -0.00000000  1
  Nb  Nb3  1  0.70402999  -0.00000000  0.50000000  1
  Nb  Nb4  1  -0.00000000  0.70402999  0.50000000  1
  Nb  Nb5  1  0.36931168  -0.00000000  -0.00000000  1
  Zn  Zn6  1  0.33333333  0.66666667  0.51813283  1
  Zn  Zn7  1  -0.00000000  -0.00000000  -0.00000000  1
  Zn  Zn8  1  0.66666667  0.33333333  0.48186717  1
  O  O9  1  0.77081182  0.88096621  0.23862324  1
  O  O10  1  0.57066765  0.78053886  0.74469715  1
  O  O11  1  0.44159014  0.54281929  0.26077328  1
  O  O12  1  0.45718071  0.89877086  0.26077328  1
  O  O13  1  0.20987120  0.42933235  0.74469715  1
  O  O14  1  0.11015438  0.22918818  0.23862324  1
  O  O15  1  0.21946114  0.79012880  0.74469715  1
  O  O16  1  0.88984562  0.11903379  0.76137676  1
  O  O17  1  0.10122914  0.55840986  0.26077328  1
  O  O18  1  0.11903379  0.88984562  0.23862324  1
  O  O19  1  0.79012880  0.21946114  0.25530285  1
  O  O20  1  0.89877086  0.45718071  0.73922672  1
  O  O21  1  0.55840986  0.10122914  0.73922672  1
  O  O22  1  0.78053886  0.57066765  0.25530285  1
  O  O23  1  0.88096621  0.77081182  0.76137676  1
  O  O24  1  0.42933235  0.20987120  0.25530285  1
  O  O25  1  0.54281929  0.44159014  0.73922672  1
  O  O26  1  0.22918818  0.11015438  0.76137676  1
