# generated using pymatgen
data_Ga2B2PbO7
_symmetry_space_group_name_H-M   'P 1'
_cell_length_a   8.92661894
_cell_length_b   8.92661894
_cell_length_c   8.92661894
_cell_angle_alpha   32.56528180
_cell_angle_beta   32.56528180
_cell_angle_gamma   32.56528180
_symmetry_Int_Tables_number   1
_chemical_formula_structural   Ga2B2PbO7
_chemical_formula_sum   'Ga2 B2 Pb1 O7'
_cell_volume   183.26923532
_cell_formula_units_Z   1
loop_
 _symmetry_equiv_pos_site_id
 _symmetry_equiv_pos_as_xyz
  1  'x, y, z'
loop_
 _atom_site_type_symbol
 _atom_site_label
 _atom_site_symmetry_multiplicity
 _atom_site_fract_x
 _atom_site_fract_y
 _atom_site_fract_z
 _atom_site_occupancy
  Ga  Ga0  1  0.56916241  0.56916241  0.56916241  1
  Ga  Ga1  1  0.43083759  0.43083759  0.43083759  1
  B  B2  1  0.73507487  0.73507487  0.73507487  1
  B  B3  1  0.26492513  0.26492513  0.26492513  1
  Pb  Pb4  1  0.00000000  0.00000000  0.00000000  1
  O  O5  1  0.52215935  0.30594531  0.97375595  1
  O  O6  1  0.30594531  0.97375595  0.52215935  1
  O  O7  1  0.97375595  0.52215935  0.30594531  1
  O  O8  1  0.50000000  0.50000000  0.50000000  1
  O  O9  1  0.02624405  0.69405469  0.47784065  1
  O  O10  1  0.69405469  0.47784065  0.02624405  1
  O  O11  1  0.47784065  0.02624405  0.69405469  1
