# generated using pymatgen
data_HfMgSc2O6
_symmetry_space_group_name_H-M   'P 1'
_cell_length_a   5.68875966
_cell_length_b   5.68875966
_cell_length_c   5.68875966
_cell_angle_alpha   56.10512206
_cell_angle_beta   56.10512206
_cell_angle_gamma   56.10512206
_symmetry_Int_Tables_number   1
_chemical_formula_structural   HfMgSc2O6
_chemical_formula_sum   'Hf1 Mg1 Sc2 O6'
_cell_volume   118.43731140
_cell_formula_units_Z   1
loop_
 _symmetry_equiv_pos_site_id
 _symmetry_equiv_pos_as_xyz
  1  'x, y, z'
loop_
 _atom_site_type_symbol
 _atom_site_label
 _atom_site_symmetry_multiplicity
 _atom_site_fract_x
 _atom_site_fract_y
 _atom_site_fract_z
 _atom_site_occupancy
  Hf  Hf0  1  0.31183089  0.31183089  0.31183089  1
  Mg  Mg1  1  0.81061020  0.81061020  0.81061020  1
  Sc  Sc2  1  0.52141830  0.52141830  0.52141830  1
  Sc  Sc3  1  0.02372641  0.02372641  0.02372641  1
  O  O4  1  0.92381074  0.60893658  0.21686084  1
  O  O5  1  0.60893658  0.21686084  0.92381074  1
  O  O6  1  0.21686084  0.92381074  0.60893658  1
  O  O7  1  0.11931487  0.41396772  0.71091483  1
  O  O8  1  0.41396772  0.71091483  0.11931487  1
  O  O9  1  0.71091483  0.11931487  0.41396772  1
