# generated using pymatgen
data_CuI
_symmetry_space_group_name_H-M   'P 1'
_cell_length_a   4.25000001
_cell_length_b   4.25000001
_cell_length_c   20.86000000
_cell_angle_alpha   90.00000000
_cell_angle_beta   90.00000000
_cell_angle_gamma   120.00000000
_symmetry_Int_Tables_number   1
_chemical_formula_structural   CuI
_chemical_formula_sum   'Cu6 I6'
_cell_volume   326.30430077
_cell_formula_units_Z   6
loop_
 _symmetry_equiv_pos_site_id
 _symmetry_equiv_pos_as_xyz
  1  'x, y, z'
loop_
 _atom_site_type_symbol
 _atom_site_label
 _atom_site_symmetry_multiplicity
 _atom_site_fract_x
 _atom_site_fract_y
 _atom_site_fract_z
 _atom_site_occupancy
  Cu  Cu0  1  0.00000000  0.00000000  0.79170000  1.0
  Cu  Cu1  1  0.33333333  0.66666667  0.04167000  1.0
  Cu  Cu2  1  0.00000000  0.00000000  0.45830000  1.0
  Cu  Cu3  1  0.00000000  0.00000000  0.12500000  1.0
  Cu  Cu4  1  0.66666667  0.33333333  0.70830000  1.0
  Cu  Cu5  1  0.33333333  0.66666667  0.37500000  1.0
  I  I6  1  0.00000000  0.00000000  0.33333333  1.0
  I  I7  1  0.00000000  0.00000000  0.66666667  1.0
  I  I8  1  0.33333333  0.66666667  0.16670000  1.0
  I  I9  1  0.33333333  0.66666667  0.50000000  1.0
  I  I10  1  0.66666667  0.33333333  0.83330000  1.0
  I  I11  1  0.00000000  0.00000000  0.00000000  1.0
