# generated using pymatgen
data_BClO
_symmetry_space_group_name_H-M   'P 1'
_cell_length_a   4.44450529
_cell_length_b   7.73103303
_cell_length_c   15.05385937
_cell_angle_alpha   90.00000000
_cell_angle_beta   90.00000000
_cell_angle_gamma   90.00000000
_symmetry_Int_Tables_number   1
_chemical_formula_structural   BClO
_chemical_formula_sum   'B2 Cl2 O2'
_cell_volume   517.25989918
_cell_formula_units_Z   2
loop_
 _symmetry_equiv_pos_site_id
 _symmetry_equiv_pos_as_xyz
  1  'x, y, z'
loop_
 _atom_site_type_symbol
 _atom_site_label
 _atom_site_symmetry_multiplicity
 _atom_site_fract_x
 _atom_site_fract_y
 _atom_site_fract_z
 _atom_site_occupancy
  B  B0  1  0.36703166  0.41785072  0.50055200  1
  B  B1  1  0.86703166  0.58214928  0.50055200  1
  Cl  Cl2  1  0.74913283  0.79925853  0.49793512  1
  Cl  Cl3  1  0.24913283  0.20074147  0.49793512  1
  O  O4  1  0.17183069  0.55439089  0.50151289  1
  O  O5  1  0.67183069  0.44560911  0.50151289  1
