# generated using pymatgen
data_SiNF
_symmetry_space_group_name_H-M   'P 1'
_cell_length_a   2.91469181
_cell_length_b   4.83705741
_cell_length_c   5.48339870
_cell_angle_alpha   90.00000000
_cell_angle_beta   90.00000000
_cell_angle_gamma   90.00000000
_symmetry_Int_Tables_number   1
_chemical_formula_structural   SiNF
_chemical_formula_sum   'Si2 N2 F2'
_cell_volume   77.30786994
_cell_formula_units_Z   2
loop_
 _symmetry_equiv_pos_site_id
 _symmetry_equiv_pos_as_xyz
  1  'x, y, z'
loop_
 _atom_site_type_symbol
 _atom_site_label
 _atom_site_symmetry_multiplicity
 _atom_site_fract_x
 _atom_site_fract_y
 _atom_site_fract_z
 _atom_site_occupancy
  Si  Si0  1  0.00000000  0.04322348  0.39594961  1
  Si  Si1  1  0.50000000  0.54322348  0.60405039  1
  N  N2  1  0.50000000  0.87098812  0.47403957  1
  N  N3  1  0.00000000  0.37098812  0.52596043  1
  F  F4  1  0.00000000  0.08768740  0.10602928  1
  F  F5  1  0.50000000  0.58768740  0.89397072  1
