# generated using pymatgen
data_NaSrGaF6
_symmetry_space_group_name_H-M   'P 1'
_cell_length_a   5.55705656
_cell_length_b   5.55705656
_cell_length_c   5.09612866
_cell_angle_alpha   90.00000000
_cell_angle_beta   90.00000000
_cell_angle_gamma   120.00000000
_symmetry_Int_Tables_number   1
_chemical_formula_structural   NaSrGaF6
_chemical_formula_sum   'Na1 Sr1 Ga1 F6'
_cell_volume   136.28895125
_cell_formula_units_Z   1
loop_
 _symmetry_equiv_pos_site_id
 _symmetry_equiv_pos_as_xyz
  1  'x, y, z'
loop_
 _atom_site_type_symbol
 _atom_site_label
 _atom_site_symmetry_multiplicity
 _atom_site_fract_x
 _atom_site_fract_y
 _atom_site_fract_z
 _atom_site_occupancy
  Na  Na0  1  0.66666667  0.33333333  0.50000000  1
  Sr  Sr1  1  0.33333333  0.66666667  0.00000000  1
  Ga  Ga2  1  0.00000000  -0.00000000  0.50000000  1
  F  F3  1  0.71380064  0.00000562  0.28473529  1
  F  F4  1  0.28620499  0.28619936  0.28473529  1
  F  F5  1  0.99999438  0.71379501  0.28473529  1
  F  F6  1  0.28620499  0.00000562  0.71526471  1
  F  F7  1  0.71380064  0.71379501  0.71526471  1
  F  F8  1  0.99999438  0.28619936  0.71526471  1
