# generated using pymatgen
data_LiCaGaF6
_symmetry_space_group_name_H-M   'P 1'
_cell_length_a   5.16628260
_cell_length_b   5.16628260
_cell_length_c   4.92478052
_cell_angle_alpha   90.00000000
_cell_angle_beta   90.00000000
_cell_angle_gamma   120.00000000
_symmetry_Int_Tables_number   1
_chemical_formula_structural   LiCaGaF6
_chemical_formula_sum   'Li1 Ca1 Ga1 F6'
_cell_volume   113.83448050
_cell_formula_units_Z   1
loop_
 _symmetry_equiv_pos_site_id
 _symmetry_equiv_pos_as_xyz
  1  'x, y, z'
loop_
 _atom_site_type_symbol
 _atom_site_label
 _atom_site_symmetry_multiplicity
 _atom_site_fract_x
 _atom_site_fract_y
 _atom_site_fract_z
 _atom_site_occupancy
  Li  Li0  1  0.00000000  0.00000000  0.50000000  1
  Ca  Ca1  1  0.66666667  0.33333333  0.00000000  1
  Ga  Ga2  1  0.33333333  0.66666667  0.50000000  1
  F  F3  1  0.03262782  0.35150888  0.71947793  1
  F  F4  1  0.64849112  0.68111894  0.71947793  1
  F  F5  1  0.31888106  0.96737218  0.71947793  1
  F  F6  1  0.64849112  0.96737218  0.28052207  1
  F  F7  1  0.03262782  0.68111894  0.28052207  1
  F  F8  1  0.31888106  0.35150888  0.28052207  1
