# generated using pymatgen
data_NaCaScF6
_symmetry_space_group_name_H-M   'P 1'
_cell_length_a   5.12917666
_cell_length_b   5.12917666
_cell_length_c   10.28003683
_cell_angle_alpha   90.00000000
_cell_angle_beta   90.00000000
_cell_angle_gamma   90.00000000
_symmetry_Int_Tables_number   1
_chemical_formula_structural   NaCaScF6
_chemical_formula_sum   'Na2 Ca2 Sc2 F12'
_cell_volume   270.45186793
_cell_formula_units_Z   2
loop_
 _symmetry_equiv_pos_site_id
 _symmetry_equiv_pos_as_xyz
  1  'x, y, z'
loop_
 _atom_site_type_symbol
 _atom_site_label
 _atom_site_symmetry_multiplicity
 _atom_site_fract_x
 _atom_site_fract_y
 _atom_site_fract_z
 _atom_site_occupancy
  Na  Na0  1  0.50000000  0.50000000  0.49919249  1
  Na  Na1  1  0.00000000  0.00000000  0.99919249  1
  Ca  Ca2  1  0.50000000  0.50000000  0.16846522  1
  Ca  Ca3  1  0.00000000  0.00000000  0.66846522  1
  Sc  Sc4  1  0.50000000  0.50000000  0.83354681  1
  Sc  Sc5  1  0.00000000  0.00000000  0.33354681  1
  F  F6  1  0.18321694  0.81678306  0.48501732  1
  F  F7  1  0.81678306  0.18321694  0.48501732  1
  F  F8  1  0.31678306  0.31678306  0.98501732  1
  F  F9  1  0.68321694  0.68321694  0.98501732  1
  F  F10  1  0.18929483  0.81070517  0.18601187  1
  F  F11  1  0.81070517  0.18929483  0.18601187  1
  F  F12  1  0.31070517  0.31070517  0.68601187  1
  F  F13  1  0.68929483  0.68929483  0.68601187  1
  F  F14  1  0.78195727  0.21804273  0.82836235  1
  F  F15  1  0.21804273  0.78195727  0.82836235  1
  F  F16  1  0.71804273  0.71804273  0.32836235  1
  F  F17  1  0.28195727  0.28195727  0.32836235  1
