# generated using pymatgen
data_Na2GeO3
_symmetry_space_group_name_H-M   'P 1'
_cell_length_a   4.91800000
_cell_length_b   6.22400000
_cell_length_c   6.25204369
_cell_angle_alpha   119.85173066
_cell_angle_beta   90.00000000
_cell_angle_gamma   90.00000000
_symmetry_Int_Tables_number   1
_chemical_formula_structural   Na2GeO3
_chemical_formula_sum   'Na4 Ge2 O6'
_cell_volume   165.98072968
_cell_formula_units_Z   2
loop_
 _symmetry_equiv_pos_site_id
 _symmetry_equiv_pos_as_xyz
  1  'x, y, z'
loop_
 _atom_site_type_symbol
 _atom_site_label
 _atom_site_symmetry_multiplicity
 _atom_site_fract_x
 _atom_site_fract_y
 _atom_site_fract_z
 _atom_site_occupancy
  Na  Na2  1  0.50000000  0.49258000  0.66480000  1.0
  Na  Na3  1  0.50000000  0.82778000  0.33520000  1.0
  Na  Na4  1  0.00000000  0.50742000  0.33520000  1.0
  Na  Na5  1  0.00000000  0.17222000  0.66480000  1.0
  Ge  Ge0  1  0.53641000  0.16296000  0.00000000  1.0
  Ge  Ge1  1  0.03641000  0.83704000  0.00000000  1.0
  O  O6  1  0.39613000  0.89723000  0.00000000  1.0
  O  O7  1  0.89613000  0.10277000  0.00000000  1.0
  O  O8  1  0.47603000  0.43040000  0.27192000  1.0
  O  O9  1  0.97603000  0.56960000  0.72808000  1.0
  O  O10  1  0.47603000  0.15848000  0.72808000  1.0
  O  O11  1  0.97603000  0.84152000  0.27192000  1.0
