# generated using pymatgen
data_AlGaP2
_symmetry_space_group_name_H-M   'P 1'
_cell_length_a   6.74178582
_cell_length_b   6.74178582
_cell_length_c   6.74178582
_cell_angle_alpha   131.82129244
_cell_angle_beta   131.82129244
_cell_angle_gamma   70.51142290
_symmetry_Int_Tables_number   1
_chemical_formula_structural   AlGaP2
_chemical_formula_sum   'Al2 Ga2 P4'
_cell_volume   166.74329809
_cell_formula_units_Z   2
loop_
 _symmetry_equiv_pos_site_id
 _symmetry_equiv_pos_as_xyz
  1  'x, y, z'
loop_
 _atom_site_type_symbol
 _atom_site_label
 _atom_site_symmetry_multiplicity
 _atom_site_fract_x
 _atom_site_fract_y
 _atom_site_fract_z
 _atom_site_occupancy
  Al  Al0  1  0.25000000  0.75000000  0.50000000  1
  Al  Al1  1  0.50000000  0.50000000  -0.00000000  1
  Ga  Ga2  1  0.75000000  0.25000000  0.50000000  1
  Ga  Ga3  1  0.00000000  0.00000000  0.00000000  1
  P  P4  1  0.62411812  0.12500000  0.99911812  1
  P  P5  1  0.12588188  0.62500000  0.00088188  1
  P  P6  1  0.87500000  0.87411812  0.49911812  1
  P  P7  1  0.37500000  0.37588188  0.50088188  1
