# generated using pymatgen
data_RbInP2S7
_symmetry_space_group_name_H-M   'P 1'
_cell_length_a   6.74491046
_cell_length_b   6.74491046
_cell_length_c   6.96580126
_cell_angle_alpha   81.98985958
_cell_angle_beta   81.98985958
_cell_angle_gamma   97.25350244
_symmetry_Int_Tables_number   1
_chemical_formula_structural   RbInP2S7
_chemical_formula_sum   'Rb1 In1 P2 S7'
_cell_volume   307.29896828
_cell_formula_units_Z   1
loop_
 _symmetry_equiv_pos_site_id
 _symmetry_equiv_pos_as_xyz
  1  'x, y, z'
loop_
 _atom_site_type_symbol
 _atom_site_label
 _atom_site_symmetry_multiplicity
 _atom_site_fract_x
 _atom_site_fract_y
 _atom_site_fract_z
 _atom_site_occupancy
  Rb  Rb0  1  0.99264362  0.00735638  0.50000000  1
  In  In1  1  0.49276035  0.50723965  0.00000000  1
  P  P2  1  0.94917293  0.64175937  0.08186759  1
  P  P3  1  0.35824063  0.05082707  0.91813241  1
  S  S4  1  0.03347654  0.96652346  0.00000000  1
  S  S5  1  0.47691438  0.84517470  0.76464508  1
  S  S6  1  0.69016953  0.62983556  0.27424220  1
  S  S7  1  0.37016444  0.30983047  0.72575780  1
  S  S8  1  0.88677186  0.52363859  0.84147989  1
  S  S9  1  0.47636141  0.11322814  0.15852011  1
  S  S10  1  0.15482530  0.52308562  0.23535492  1
