# generated using pymatgen
data_BeZnSe2
_symmetry_space_group_name_H-M   'P 1'
_cell_length_a   3.85942810
_cell_length_b   3.85942810
_cell_length_c   6.71732781
_cell_angle_alpha   73.32504153
_cell_angle_beta   73.32504153
_cell_angle_gamma   59.98895769
_symmetry_Int_Tables_number   1
_chemical_formula_structural   BeZnSe2
_chemical_formula_sum   'Be1 Zn1 Se2'
_cell_volume   81.74782291
_cell_formula_units_Z   1
loop_
 _symmetry_equiv_pos_site_id
 _symmetry_equiv_pos_as_xyz
  1  'x, y, z'
loop_
 _atom_site_type_symbol
 _atom_site_label
 _atom_site_symmetry_multiplicity
 _atom_site_fract_x
 _atom_site_fract_y
 _atom_site_fract_z
 _atom_site_occupancy
  Be  Be0  1  0.11535276  0.11535276  0.54382441  1
  Zn  Zn1  1  0.61541469  0.61541469  0.04692905  1
  Se  Se2  1  0.48464720  0.48464720  0.43610120  1
  Se  Se3  1  0.99907647  0.99907647  0.89544424  1
