# generated using pymatgen
data_Zn3WN4
_symmetry_space_group_name_H-M   'P 1'
_cell_length_a   5.67170646
_cell_length_b   5.67170646
_cell_length_c   5.67170646
_cell_angle_alpha   131.37496822
_cell_angle_beta   131.37496822
_cell_angle_gamma   71.21800628
_symmetry_Int_Tables_number   1
_chemical_formula_structural   Zn3WN4
_chemical_formula_sum   'Zn3 W1 N4'
_cell_volume   100.57425332
_cell_formula_units_Z   1
loop_
 _symmetry_equiv_pos_site_id
 _symmetry_equiv_pos_as_xyz
  1  'x, y, z'
loop_
 _atom_site_type_symbol
 _atom_site_label
 _atom_site_symmetry_multiplicity
 _atom_site_fract_x
 _atom_site_fract_y
 _atom_site_fract_z
 _atom_site_occupancy
  Zn  Zn0  1  0.50000000  0.50000000  -0.00000000  1
  Zn  Zn1  1  0.75000000  0.25000000  0.50000000  1
  Zn  Zn2  1  0.25000000  0.75000000  0.50000000  1
  W  W3  1  0.00000000  0.00000000  0.00000000  1
  N  N4  1  0.35219057  0.88478321  1.00000000  1
  N  N5  1  0.88478321  0.35219057  -0.00000000  1
  N  N6  1  0.11521679  0.11521679  0.46740736  1
  N  N7  1  0.64780943  0.64780943  0.53259264  1
