# generated using pymatgen
data_TlInS2
_symmetry_space_group_name_H-M   'P 1'
_cell_length_a   6.82852063
_cell_length_b   6.82852063
_cell_length_c   6.82852063
_cell_angle_alpha   115.69485538
_cell_angle_beta   115.69485538
_cell_angle_gamma   97.63394708
_symmetry_Int_Tables_number   1
_chemical_formula_structural   TlInS2
_chemical_formula_sum   'Tl2 In2 S4'
_cell_volume   237.51090689
_cell_formula_units_Z   2
loop_
 _symmetry_equiv_pos_site_id
 _symmetry_equiv_pos_as_xyz
  1  'x, y, z'
loop_
 _atom_site_type_symbol
 _atom_site_label
 _atom_site_symmetry_multiplicity
 _atom_site_fract_x
 _atom_site_fract_y
 _atom_site_fract_z
 _atom_site_occupancy
  Tl  Tl0  1  0.00000000  0.00000000  0.00000000  1
  Tl  Tl1  1  0.75000000  0.25000000  0.50000000  1
  In  In2  1  0.50000000  0.50000000  -0.00000000  1
  In  In3  1  0.25000000  0.75000000  0.50000000  1
  S  S4  1  0.19802237  0.62500000  0.07302237  1
  S  S5  1  0.55197763  0.12500000  0.92697763  1
  S  S6  1  0.87500000  0.80197763  0.42697763  1
  S  S7  1  0.37500000  0.44802237  0.57302237  1
