# generated using pymatgen
data_Hf(PS3)2
_symmetry_space_group_name_H-M   'P 1'
_cell_length_a   8.11204353
_cell_length_b   8.11204353
_cell_length_c   8.11204353
_cell_angle_alpha   45.19363467
_cell_angle_beta   45.19363467
_cell_angle_gamma   45.19363467
_symmetry_Int_Tables_number   1
_chemical_formula_structural   Hf(PS3)2
_chemical_formula_sum   'Hf1 P2 S6'
_cell_volume   244.67629432
_cell_formula_units_Z   1
loop_
 _symmetry_equiv_pos_site_id
 _symmetry_equiv_pos_as_xyz
  1  'x, y, z'
loop_
 _atom_site_type_symbol
 _atom_site_label
 _atom_site_symmetry_multiplicity
 _atom_site_fract_x
 _atom_site_fract_y
 _atom_site_fract_z
 _atom_site_occupancy
  Hf  Hf0  1  0.33327254  0.33327254  0.33327254  1
  P  P1  1  0.71709652  0.71709652  0.71709652  1
  P  P2  1  0.61601112  0.61601112  0.61601112  1
  S  S3  1  0.07853108  0.69680442  0.45434993  1
  S  S4  1  0.45434993  0.07853108  0.69680442  1
  S  S5  1  0.69680442  0.45434993  0.07853108  1
  S  S6  1  0.92540192  0.30135385  0.54286659  1
  S  S7  1  0.54286659  0.92540192  0.30135385  1
  S  S8  1  0.30135385  0.54286659  0.92540192  1
