# generated using pymatgen
data_Al2ZnS4
_symmetry_space_group_name_H-M   'P 1'
_cell_length_a   6.58388183
_cell_length_b   6.58388183
_cell_length_c   6.58388183
_cell_angle_alpha   133.40412232
_cell_angle_beta   133.40412232
_cell_angle_gamma   68.02020718
_symmetry_Int_Tables_number   1
_chemical_formula_structural   Al2ZnS4
_chemical_formula_sum   'Al2 Zn1 S4'
_cell_volume   148.02973642
_cell_formula_units_Z   1
loop_
 _symmetry_equiv_pos_site_id
 _symmetry_equiv_pos_as_xyz
  1  'x, y, z'
loop_
 _atom_site_type_symbol
 _atom_site_label
 _atom_site_symmetry_multiplicity
 _atom_site_fract_x
 _atom_site_fract_y
 _atom_site_fract_z
 _atom_site_occupancy
  Al  Al0  1  0.25000000  0.75000000  0.50000000  1
  Al  Al1  1  0.75000000  0.25000000  0.50000000  1
  Zn  Zn2  1  0.00000000  0.00000000  0.00000000  1
  S  S3  1  0.13332793  0.13332793  0.51917181  1
  S  S4  1  0.38584388  0.86667207  1.00000000  1
  S  S5  1  0.61415612  0.61415612  0.48082819  1
  S  S6  1  0.86667207  0.38584388  0.00000000  1
