# generated using pymatgen
data_Li2GeO3
_symmetry_space_group_name_H-M   'P 1'
_cell_length_a   4.84300000
_cell_length_b   5.48100000
_cell_length_c   5.54200589
_cell_angle_alpha   119.63652454
_cell_angle_beta   90.00000000
_cell_angle_gamma   90.00000000
_symmetry_Int_Tables_number   1
_chemical_formula_structural   Li2GeO3
_chemical_formula_sum   'Li4 Ge2 O6'
_cell_volume   127.86477470
_cell_formula_units_Z   2
loop_
 _symmetry_equiv_pos_site_id
 _symmetry_equiv_pos_as_xyz
  1  'x, y, z'
loop_
 _atom_site_type_symbol
 _atom_site_label
 _atom_site_symmetry_multiplicity
 _atom_site_fract_x
 _atom_site_fract_y
 _atom_site_fract_z
 _atom_site_occupancy
  Li  Li2  1  0.01530000  0.16820000  0.64840000  1.0
  Li  Li3  1  0.51530000  0.83180000  0.35160000  1.0
  Li  Li4  1  0.51530000  0.48020000  0.64840000  1.0
  Li  Li5  1  0.01530000  0.51980000  0.35160000  1.0
  Ge  Ge0  1  0.50000000  0.17820000  0.00000000  1.0
  Ge  Ge1  1  0.00000000  0.82180000  0.00000000  1.0
  O  O6  1  0.87030000  0.13150000  0.00000000  1.0
  O  O7  1  0.40860000  0.46950000  0.30440000  1.0
  O  O8  1  0.40860000  0.16510000  0.69560000  1.0
  O  O9  1  0.37030000  0.86850000  0.00000000  1.0
  O  O10  1  0.90860000  0.83490000  0.30440000  1.0
  O  O11  1  0.90860000  0.53050000  0.69560000  1.0
