# generated using pymatgen
data_GaBiO3
_symmetry_space_group_name_H-M   'P 1'
_cell_length_a   5.64157238
_cell_length_b   5.64157238
_cell_length_c   5.64157238
_cell_angle_alpha   59.33723100
_cell_angle_beta   59.33723100
_cell_angle_gamma   59.33723100
_symmetry_Int_Tables_number   1
_chemical_formula_structural   GaBiO3
_chemical_formula_sum   'Ga2 Bi2 O6'
_cell_volume   125.04978460
_cell_formula_units_Z   2
loop_
 _symmetry_equiv_pos_site_id
 _symmetry_equiv_pos_as_xyz
  1  'x, y, z'
loop_
 _atom_site_type_symbol
 _atom_site_label
 _atom_site_symmetry_multiplicity
 _atom_site_fract_x
 _atom_site_fract_y
 _atom_site_fract_z
 _atom_site_occupancy
  Ga  Ga0  1  0.51094400  0.51094400  0.51094400  1
  Ga  Ga1  1  0.01094400  0.01094400  0.01094400  1
  Bi  Bi2  1  0.78643100  0.78643100  0.78643100  1
  Bi  Bi3  1  0.28643100  0.28643100  0.28643100  1
  O  O4  1  0.72610900  0.32123300  0.18238600  1
  O  O5  1  0.18238600  0.72610900  0.32123300  1
  O  O6  1  0.32123300  0.18238600  0.72610900  1
  O  O7  1  0.68238600  0.82123300  0.22610900  1
  O  O8  1  0.82123300  0.22610900  0.68238600  1
  O  O9  1  0.22610900  0.68238600  0.82123300  1
