# generated using pymatgen
data_SiBrN
_symmetry_space_group_name_H-M   'P 1'
_cell_length_a   4.93362731
_cell_length_b   5.57874899
_cell_length_c   8.99684186
_cell_angle_alpha   90.00000000
_cell_angle_beta   90.00000000
_cell_angle_gamma   90.00000000
_symmetry_Int_Tables_number   1
_chemical_formula_structural   SiBrN
_chemical_formula_sum   'Si4 Br4 N4'
_cell_volume   247.62429239
_cell_formula_units_Z   4
loop_
 _symmetry_equiv_pos_site_id
 _symmetry_equiv_pos_as_xyz
  1  'x, y, z'
loop_
 _atom_site_type_symbol
 _atom_site_label
 _atom_site_symmetry_multiplicity
 _atom_site_fract_x
 _atom_site_fract_y
 _atom_site_fract_z
 _atom_site_occupancy
  Si  Si0  1  0.14770509  0.40231204  0.92694642  1
  Si  Si1  1  0.64770509  0.59768796  0.07305358  1
  Si  Si2  1  0.14770509  0.90231204  0.07305358  1
  Si  Si3  1  0.64770509  0.09768796  0.92694642  1
  Br  Br4  1  0.09006252  0.99318618  0.31075065  1
  Br  Br5  1  0.59006252  0.00681382  0.68924935  1
  Br  Br6  1  0.09006252  0.49318618  0.68924935  1
  Br  Br7  1  0.59006252  0.50681382  0.31075065  1
  N  N8  1  0.99123339  0.12867415  0.96865408  1
  N  N9  1  0.49123339  0.87132585  0.03134592  1
  N  N10  1  0.99123339  0.62867415  0.03134592  1
  N  N11  1  0.49123339  0.37132585  0.96865408  1
