# generated using pymatgen
data_SrB2As2O7
_symmetry_space_group_name_H-M   'P 1'
_cell_length_a   7.82075731
_cell_length_b   7.82075731
_cell_length_c   7.82075731
_cell_angle_alpha   36.37563712
_cell_angle_beta   36.37563712
_cell_angle_gamma   36.37563712
_symmetry_Int_Tables_number   1
_chemical_formula_structural   SrB2As2O7
_chemical_formula_sum   'Sr1 B2 As2 O7'
_cell_volume   150.59140644
_cell_formula_units_Z   1
loop_
 _symmetry_equiv_pos_site_id
 _symmetry_equiv_pos_as_xyz
  1  'x, y, z'
loop_
 _atom_site_type_symbol
 _atom_site_label
 _atom_site_symmetry_multiplicity
 _atom_site_fract_x
 _atom_site_fract_y
 _atom_site_fract_z
 _atom_site_occupancy
  Sr  Sr0  1  0.50000000  0.50000000  0.50000000  1
  B  B1  1  0.93448612  0.93448612  0.93448612  1
  B  B2  1  0.06551388  0.06551388  0.06551388  1
  As  As3  1  0.71512907  0.71512907  0.71512907  1
  As  As4  1  0.28487093  0.28487093  0.28487093  1
  O  O5  1  0.59362812  0.14628776  0.98291918  1
  O  O6  1  0.98291918  0.59362812  0.14628776  1
  O  O7  1  0.14628776  0.98291918  0.59362812  1
  O  O8  1  0.85371224  0.40637188  0.01708082  1
  O  O9  1  0.01708082  0.85371224  0.40637188  1
  O  O10  1  0.00000000  0.00000000  0.00000000  1
  O  O11  1  0.40637188  0.01708082  0.85371224  1
