# generated using pymatgen
data_TaBiO4
_symmetry_space_group_name_H-M   'P 1'
_cell_length_a   5.29215917
_cell_length_b   5.49812697
_cell_length_c   5.84785310
_cell_angle_alpha   90.00000000
_cell_angle_beta   90.00000000
_cell_angle_gamma   90.00000000
_symmetry_Int_Tables_number   1
_chemical_formula_structural   TaBiO4
_chemical_formula_sum   'Ta2 Bi2 O8'
_cell_volume   170.15476564
_cell_formula_units_Z   2
loop_
 _symmetry_equiv_pos_site_id
 _symmetry_equiv_pos_as_xyz
  1  'x, y, z'
loop_
 _atom_site_type_symbol
 _atom_site_label
 _atom_site_symmetry_multiplicity
 _atom_site_fract_x
 _atom_site_fract_y
 _atom_site_fract_z
 _atom_site_occupancy
  Ta  Ta0  1  0.00000000  0.00000000  0.80552104  1
  Ta  Ta1  1  0.50000000  0.00000000  0.30552104  1
  Bi  Bi2  1  0.00000000  0.50000000  0.19663720  1
  Bi  Bi3  1  0.50000000  0.50000000  0.69663720  1
  O  O4  1  0.25604863  0.85883890  0.10231633  1
  O  O5  1  0.16864311  0.29712330  0.89660455  1
  O  O6  1  0.33135689  0.29712330  0.39660455  1
  O  O7  1  0.24395137  0.85883890  0.60231633  1
  O  O8  1  0.66864311  0.70287670  0.39660455  1
  O  O9  1  0.75604863  0.14116110  0.60231633  1
  O  O10  1  0.74395137  0.14116110  0.10231633  1
  O  O11  1  0.83135689  0.70287670  0.89660455  1
