# generated using pymatgen
data_BIF2
_symmetry_space_group_name_H-M   'P 1'
_cell_length_a   5.50083549
_cell_length_b   5.50083549
_cell_length_c   5.50083549
_cell_angle_alpha   120.79652287
_cell_angle_beta   108.82559419
_cell_angle_gamma   99.51586683
_symmetry_Int_Tables_number   1
_chemical_formula_structural   BIF2
_chemical_formula_sum   'B1 I1 F2'
_cell_volume   123.64285659
_cell_formula_units_Z   1
loop_
 _symmetry_equiv_pos_site_id
 _symmetry_equiv_pos_as_xyz
  1  'x, y, z'
loop_
 _atom_site_type_symbol
 _atom_site_label
 _atom_site_symmetry_multiplicity
 _atom_site_fract_x
 _atom_site_fract_y
 _atom_site_fract_z
 _atom_site_occupancy
  B  B0  1  0.37994224  1.00000000  0.37994224  1
  I  I1  1  0.04768474  -0.00000000  0.04768474  1
  F  F2  1  0.48618651  0.79001457  0.27620109  1
  F  F3  1  0.48618651  0.20998542  0.69617194  1
