# generated using pymatgen
data_Tl3AsO4
_symmetry_space_group_name_H-M   'P 1'
_cell_length_a   8.51700000
_cell_length_b   8.51700000
_cell_length_c   5.23300000
_cell_angle_alpha   90.00000000
_cell_angle_beta   90.00000000
_cell_angle_gamma   120.00000000
_symmetry_Int_Tables_number   1
_chemical_formula_structural   Tl3AsO4
_chemical_formula_sum   'Tl6 As2 O8'
_cell_volume   328.74159725
_cell_formula_units_Z   2
loop_
 _symmetry_equiv_pos_site_id
 _symmetry_equiv_pos_as_xyz
  1  'x, y, z'
loop_
 _atom_site_type_symbol
 _atom_site_label
 _atom_site_symmetry_multiplicity
 _atom_site_fract_x
 _atom_site_fract_y
 _atom_site_fract_z
 _atom_site_occupancy
  Tl  Tl0  1  0.73664999  0.09189999  0.00000000  1.0
  Tl  Tl1  1  0.90810001  0.64475000  0.00000000  1.0
  Tl  Tl2  1  0.64475000  0.73664999  0.50000000  1.0
  Tl  Tl3  1  0.26335001  0.90810001  0.50000000  1.0
  Tl  Tl4  1  0.09189999  0.35525000  0.50000000  1.0
  Tl  Tl5  1  0.35525000  0.26335001  0.00000000  1.0
  As  As6  1  0.33333333  0.66666667  0.98610000  1.0
  As  As7  1  0.66666667  0.33333333  0.48610000  1.0
  O  O8  1  0.60309999  0.12009999  0.58300000  1.0
  O  O9  1  0.48300000  0.60309999  0.08300000  1.0
  O  O10  1  0.12009999  0.51700000  0.08300000  1.0
  O  O11  1  0.87990001  0.48300000  0.58300000  1.0
  O  O12  1  0.33333333  0.66666667  0.66300000  1.0
  O  O13  1  0.39690001  0.87990001  0.08300000  1.0
  O  O14  1  0.66666667  0.33333333  0.16300000  1.0
  O  O15  1  0.51700000  0.39690001  0.58300000  1.0
