# generated using pymatgen
data_Na2SrZrF8
_symmetry_space_group_name_H-M   'P 1'
_cell_length_a   5.66763957
_cell_length_b   5.67368987
_cell_length_c   6.75715338
_cell_angle_alpha   114.63431976
_cell_angle_beta   114.61209625
_cell_angle_gamma   90.38696608
_symmetry_Int_Tables_number   1
_chemical_formula_structural   Na2SrZrF8
_chemical_formula_sum   'Na2 Sr1 Zr1 F8'
_cell_volume   175.23764443
_cell_formula_units_Z   1
loop_
 _symmetry_equiv_pos_site_id
 _symmetry_equiv_pos_as_xyz
  1  'x, y, z'
loop_
 _atom_site_type_symbol
 _atom_site_label
 _atom_site_symmetry_multiplicity
 _atom_site_fract_x
 _atom_site_fract_y
 _atom_site_fract_z
 _atom_site_occupancy
  Na  Na0  1  0.75191229  0.25207587  0.50386300  1
  Na  Na1  1  0.49768687  0.49781042  0.99533606  1
  Sr  Sr2  1  0.00048603  0.00057955  0.00098370  1
  Zr  Zr3  1  0.24982789  0.74982361  0.49965987  1
  F  F4  1  0.04405347  0.03234213  0.64622624  1
  F  F5  1  0.24850389  0.71471654  0.80817043  1
  F  F6  1  0.96930437  0.39450837  0.35409585  1
  F  F7  1  0.38503159  0.95971704  0.35428954  1
  F  F8  1  0.60216299  0.61401000  0.64664665  1
  F  F9  1  0.28581998  0.44427950  0.19127002  1
  F  F10  1  0.55933105  0.09337428  0.80847191  1
  F  F11  1  0.90568857  0.74664368  0.19092973  1
