# generated using pymatgen
data_CsCaGaF6
_symmetry_space_group_name_H-M   'P 1'
_cell_length_a   5.76592753
_cell_length_b   5.76592753
_cell_length_c   6.30424924
_cell_angle_alpha   89.98929342
_cell_angle_beta   89.98929342
_cell_angle_gamma   120.01667169
_symmetry_Int_Tables_number   1
_chemical_formula_structural   CsCaGaF6
_chemical_formula_sum   'Cs1 Ca1 Ga1 F6'
_cell_volume   181.48024248
_cell_formula_units_Z   1
loop_
 _symmetry_equiv_pos_site_id
 _symmetry_equiv_pos_as_xyz
  1  'x, y, z'
loop_
 _atom_site_type_symbol
 _atom_site_label
 _atom_site_symmetry_multiplicity
 _atom_site_fract_x
 _atom_site_fract_y
 _atom_site_fract_z
 _atom_site_occupancy
  Cs  Cs0  1  0.00002946  0.99997054  0.00000000  1
  Ca  Ca1  1  0.33337349  0.66662651  0.50000000  1
  Ga  Ga2  1  0.66664301  0.33335699  0.50000000  1
  F  F3  1  0.95636725  0.36330750  0.67533450  1
  F  F4  1  0.63669250  0.04363275  0.32466550  1
  F  F5  1  0.40709764  0.36359017  0.32457890  1
  F  F6  1  0.95665214  0.59330142  0.32475179  1
  F  F7  1  0.63640983  0.59290236  0.67542110  1
  F  F8  1  0.40669858  0.04334786  0.67524821  1
