# generated using pymatgen
data_BH4Br
_symmetry_space_group_name_H-M   'P 1'
_cell_length_a   3.21608320
_cell_length_b   4.38887772
_cell_length_c   20.67623902
_cell_angle_alpha   90.00000000
_cell_angle_beta   90.00000000
_cell_angle_gamma   90.00000000
_symmetry_Int_Tables_number   1
_chemical_formula_structural   BH4Br
_chemical_formula_sum   'B1 H4 Br1'
_cell_volume   291.84502904
_cell_formula_units_Z   1
loop_
 _symmetry_equiv_pos_site_id
 _symmetry_equiv_pos_as_xyz
  1  'x, y, z'
loop_
 _atom_site_type_symbol
 _atom_site_label
 _atom_site_symmetry_multiplicity
 _atom_site_fract_x
 _atom_site_fract_y
 _atom_site_fract_z
 _atom_site_occupancy
  B  B0  1  0.00000000  0.00000000  0.58433464  1
  H  H1  1  0.00000000  0.76069169  0.61164256  1
  H  H2  1  0.50000000  0.08551958  0.33711299  1
  H  H3  1  0.00000000  0.23930831  0.61164256  1
  H  H4  1  0.50000000  0.91448042  0.33711299  1
  Br  Br5  1  0.50000000  0.00000000  0.51815427  1
