# generated using pymatgen
data_LiZnAsS4
_symmetry_space_group_name_H-M   'P 1'
_cell_length_a   5.85461812
_cell_length_b   5.85514745
_cell_length_c   6.27149200
_cell_angle_alpha   117.82288856
_cell_angle_beta   117.82105423
_cell_angle_gamma   89.99629865
_symmetry_Int_Tables_number   1
_chemical_formula_structural   LiZnAsS4
_chemical_formula_sum   'Li1 Zn1 As1 S4'
_cell_volume   161.50509413
_cell_formula_units_Z   1
loop_
 _symmetry_equiv_pos_site_id
 _symmetry_equiv_pos_as_xyz
  1  'x, y, z'
loop_
 _atom_site_type_symbol
 _atom_site_label
 _atom_site_symmetry_multiplicity
 _atom_site_fract_x
 _atom_site_fract_y
 _atom_site_fract_z
 _atom_site_occupancy
  Li  Li0  1  0.49991984  0.49994619  0.99989766  1
  Zn  Zn1  1  0.99994658  0.00005200  0.00004794  1
  As  As2  1  0.25003311  0.74999023  0.50000396  1
  S  S3  1  0.90974959  0.39444579  0.26070677  1
  S  S4  1  0.60568232  0.64907034  0.73934983  1
  S  S5  1  0.13378072  0.09026212  0.73941362  1
  S  S6  1  0.35088685  0.86623433  0.26058022  1
