# generated using pymatgen
data_POsSe
_symmetry_space_group_name_H-M   'P 1'
_cell_length_a   5.98018305
_cell_length_b   6.01078013
_cell_length_c   6.10230660
_cell_angle_alpha   67.77813479
_cell_angle_beta   90.00000000
_cell_angle_gamma   90.00000000
_symmetry_Int_Tables_number   1
_chemical_formula_structural   POsSe
_chemical_formula_sum   'P4 Os4 Se4'
_cell_volume   203.05886695
_cell_formula_units_Z   4
loop_
 _symmetry_equiv_pos_site_id
 _symmetry_equiv_pos_as_xyz
  1  'x, y, z'
loop_
 _atom_site_type_symbol
 _atom_site_label
 _atom_site_symmetry_multiplicity
 _atom_site_fract_x
 _atom_site_fract_y
 _atom_site_fract_z
 _atom_site_occupancy
  P  P0  1  0.86372365  0.34463955  0.07226719  1
  P  P1  1  0.87196722  0.85128369  0.62800782  1
  P  P2  1  0.37196722  0.14871631  0.37199218  1
  P  P3  1  0.36372365  0.65536045  0.92773281  1
  Os  Os4  1  0.00819553  0.26571053  0.44851018  1
  Os  Os5  1  0.50819553  0.73428947  0.55148982  1
  Os  Os6  1  0.50797208  0.28207616  0.96705555  1
  Os  Os7  1  0.00797208  0.71792384  0.03294445  1
  Se  Se8  1  0.12578990  0.66261174  0.43663906  1
  Se  Se9  1  0.11855362  0.15604574  0.88027374  1
  Se  Se10  1  0.61855362  0.84395426  0.11972626  1
  Se  Se11  1  0.62578990  0.33738826  0.56336094  1
