# generated using pymatgen
data_HfZrO4
_symmetry_space_group_name_H-M   'P 1'
_cell_length_a   5.88058497
_cell_length_b   5.88058497
_cell_length_c   5.88058497
_cell_angle_alpha   107.86520405
_cell_angle_beta   107.86520405
_cell_angle_gamma   112.73333358
_symmetry_Int_Tables_number   1
_chemical_formula_structural   HfZrO4
_chemical_formula_sum   'Hf2 Zr2 O8'
_cell_volume   156.16225795
_cell_formula_units_Z   2
loop_
 _symmetry_equiv_pos_site_id
 _symmetry_equiv_pos_as_xyz
  1  'x, y, z'
loop_
 _atom_site_type_symbol
 _atom_site_label
 _atom_site_symmetry_multiplicity
 _atom_site_fract_x
 _atom_site_fract_y
 _atom_site_fract_z
 _atom_site_occupancy
  Hf  Hf0  1  0.75007897  0.25007897  0.50000000  1
  Hf  Hf1  1  0.50007897  0.50007897  0.00000000  1
  Zr  Zr2  1  0.24983299  0.74983299  0.50000000  1
  Zr  Zr3  1  0.99983299  0.99983299  0.00000000  1
  O  O4  1  0.25364782  0.06001633  0.80636851  1
  O  O5  1  0.74638269  0.55090614  0.80452345  1
  O  O6  1  0.31001633  0.00364782  0.30636851  1
  O  O7  1  0.80090614  0.49638269  0.30452345  1
  O  O8  1  0.69727932  0.00364782  0.69363149  1
  O  O9  1  0.19185924  0.49638269  0.69547655  1
  O  O10  1  0.74638269  0.94185924  0.19547655  1
  O  O11  1  0.25364782  0.44727932  0.19363149  1
