# generated using pymatgen
data_BaLiGaF6
_symmetry_space_group_name_H-M   'P 1'
_cell_length_a   5.32601016
_cell_length_b   5.32601016
_cell_length_c   5.57223753
_cell_angle_alpha   90.00000000
_cell_angle_beta   90.00000000
_cell_angle_gamma   120.00000000
_symmetry_Int_Tables_number   1
_chemical_formula_structural   BaLiGaF6
_chemical_formula_sum   'Ba1 Li1 Ga1 F6'
_cell_volume   136.88763918
_cell_formula_units_Z   1
loop_
 _symmetry_equiv_pos_site_id
 _symmetry_equiv_pos_as_xyz
  1  'x, y, z'
loop_
 _atom_site_type_symbol
 _atom_site_label
 _atom_site_symmetry_multiplicity
 _atom_site_fract_x
 _atom_site_fract_y
 _atom_site_fract_z
 _atom_site_occupancy
  Ba  Ba0  1  0.66666667  0.33333333  0.00000000  1
  Li  Li1  1  0.00000000  -0.00000000  0.50000000  1
  Ga  Ga2  1  0.33333333  0.66666667  0.50000000  1
  F  F3  1  0.05818801  0.70511451  0.30086130  1
  F  F4  1  0.05818801  0.35307349  0.69913870  1
  F  F5  1  0.64692651  0.70511451  0.69913870  1
  F  F6  1  0.29488549  0.94181199  0.69913870  1
  F  F7  1  0.64692651  0.94181199  0.30086130  1
  F  F8  1  0.29488549  0.35307349  0.30086130  1
