# generated using pymatgen
data_MoO3
_symmetry_space_group_name_H-M   'P 1'
_cell_length_a   7.18479275
_cell_length_b   5.49600046
_cell_length_c   5.69551076
_cell_angle_alpha   90.00000000
_cell_angle_beta   90.01621743
_cell_angle_gamma   90.00000000
_symmetry_Int_Tables_number   1
_chemical_formula_structural   MoO3
_chemical_formula_sum   'Mo4 O12'
_cell_volume   224.90217984
_cell_formula_units_Z   4
loop_
 _symmetry_equiv_pos_site_id
 _symmetry_equiv_pos_as_xyz
  1  'x, y, z'
loop_
 _atom_site_type_symbol
 _atom_site_label
 _atom_site_symmetry_multiplicity
 _atom_site_fract_x
 _atom_site_fract_y
 _atom_site_fract_z
 _atom_site_occupancy
  Mo  Mo0  1  0.50063362  0.25361260  0.70308786  1.0
  Mo  Mo1  1  0.50063362  0.74638740  0.20308786  1.0
  Mo  Mo2  1  0.99969843  0.75125433  0.03561826  1.0
  Mo  Mo3  1  0.99969843  0.24874567  0.53561826  1.0
  O  O4  1  0.54043766  0.51623870  0.86897929  1.0
  O  O5  1  0.54043766  0.48376130  0.36897929  1.0
  O  O6  1  0.95240519  0.51652390  0.83621790  1.0
  O  O7  1  0.95240519  0.48347610  0.33621790  1.0
  O  O8  1  0.24705996  0.67123187  0.10791447  1.0
  O  O9  1  0.24705996  0.32876813  0.60791447  1.0
  O  O10  1  0.45172114  0.96249326  0.42005701  1.0
  O  O11  1  0.45172114  0.03750674  0.92005701  1.0
  O  O12  1  0.74726930  0.83081098  0.12582586  1.0
  O  O13  1  0.74726930  0.16918902  0.62582586  1.0
  O  O14  1  0.03997469  0.00029755  0.85109936  1.0
  O  O15  1  0.03997469  0.99970245  0.35109936  1.0
