# generated using pymatgen
data_TlAg2Cl3
_symmetry_space_group_name_H-M   'P 1'
_cell_length_a   7.87210586
_cell_length_b   7.87210586
_cell_length_c   7.05697211
_cell_angle_alpha   90.00000000
_cell_angle_beta   90.00000000
_cell_angle_gamma   118.40132968
_symmetry_Int_Tables_number   1
_chemical_formula_structural   TlAg2Cl3
_chemical_formula_sum   'Tl2 Ag4 Cl6'
_cell_volume   384.68389514
_cell_formula_units_Z   2
loop_
 _symmetry_equiv_pos_site_id
 _symmetry_equiv_pos_as_xyz
  1  'x, y, z'
loop_
 _atom_site_type_symbol
 _atom_site_label
 _atom_site_symmetry_multiplicity
 _atom_site_fract_x
 _atom_site_fract_y
 _atom_site_fract_z
 _atom_site_occupancy
  Tl  Tl0  1  0.30804776  0.30804776  0.52277745  1
  Tl  Tl1  1  0.69195224  0.69195224  0.02277745  1
  Ag  Ag2  1  0.65642510  0.00101567  0.51057266  1
  Ag  Ag3  1  0.00101567  0.65642510  0.51057266  1
  Ag  Ag4  1  0.34357489  0.99898433  0.01057266  1
  Ag  Ag5  1  0.99898433  0.34357489  0.01057266  1
  Cl  Cl6  1  0.67794590  0.06635698  0.14554212  1
  Cl  Cl7  1  0.06635698  0.67794590  0.14554212  1
  Cl  Cl8  1  0.32205409  0.93364302  0.64554212  1
  Cl  Cl9  1  0.93364302  0.32205409  0.64554212  1
  Cl  Cl10  1  0.30412571  0.30412571  0.07699201  1
  Cl  Cl11  1  0.69587429  0.69587429  0.57699201  1
