# generated using pymatgen
data_Li2GePbCl6
_symmetry_space_group_name_H-M   'P 1'
_cell_length_a   6.90002171
_cell_length_b   6.90123760
_cell_length_c   7.35569196
_cell_angle_alpha   62.04325370
_cell_angle_beta   62.03314216
_cell_angle_gamma   60.00690512
_symmetry_Int_Tables_number   1
_chemical_formula_structural   Li2GePbCl6
_chemical_formula_sum   'Li2 Ge1 Pb1 Cl6'
_cell_volume   255.04912992
_cell_formula_units_Z   1
loop_
 _symmetry_equiv_pos_site_id
 _symmetry_equiv_pos_as_xyz
  1  'x, y, z'
loop_
 _atom_site_type_symbol
 _atom_site_label
 _atom_site_symmetry_multiplicity
 _atom_site_fract_x
 _atom_site_fract_y
 _atom_site_fract_z
 _atom_site_occupancy
  Li  Li0  1  0.47203876  0.47185571  0.58401614  1
  Li  Li1  1  0.99641071  0.99643626  0.01076011  1
  Ge  Ge2  1  0.66803968  0.66776274  0.99608673  1
  Pb  Pb3  1  0.18435326  0.18432660  0.44698464  1
  Cl  Cl4  1  0.35932855  0.13056178  0.74706770  1
  Cl  Cl5  1  0.76296006  0.35949242  0.74701963  1
  Cl  Cl6  1  0.13055726  0.76304065  0.74698829  1
  Cl  Cl7  1  0.65343289  0.83916446  0.23524768  1
  Cl  Cl8  1  0.27225328  0.65345291  0.23529095  1
  Cl  Cl9  1  0.83902856  0.27230547  0.23533711  1
