# generated using pymatgen
data_CsLiMgTe2
_symmetry_space_group_name_H-M   'P 1'
_cell_length_a   4.67365406
_cell_length_b   4.67365406
_cell_length_c   8.60264400
_cell_angle_alpha   74.24093017
_cell_angle_beta   74.24093017
_cell_angle_gamma   90.00004388
_symmetry_Int_Tables_number   1
_chemical_formula_structural   CsLiMgTe2
_chemical_formula_sum   'Cs1 Li1 Mg1 Te2'
_cell_volume   173.49453458
_cell_formula_units_Z   1
loop_
 _symmetry_equiv_pos_site_id
 _symmetry_equiv_pos_as_xyz
  1  'x, y, z'
loop_
 _atom_site_type_symbol
 _atom_site_label
 _atom_site_symmetry_multiplicity
 _atom_site_fract_x
 _atom_site_fract_y
 _atom_site_fract_z
 _atom_site_occupancy
  Cs  Cs0  1  0.00008635  0.99991365  0.50000000  1
  Li  Li1  1  0.24990365  0.75009635  0.00000000  1
  Mg  Mg2  1  0.75003844  0.24996155  0.00000000  1
  Te  Te3  1  0.64861415  0.64846430  0.20263099  1
  Te  Te4  1  0.35153570  0.35138585  0.79736901  1
