# generated using pymatgen
data_HgIBr
_symmetry_space_group_name_H-M   'P 1'
_cell_length_a   4.47556034
_cell_length_b   7.25147055
_cell_length_c   8.21015062
_cell_angle_alpha   90.05674003
_cell_angle_beta   90.08877002
_cell_angle_gamma   101.58500002
_symmetry_Int_Tables_number   1
_chemical_formula_structural   HgIBr
_chemical_formula_sum   'Hg2 I2 Br2'
_cell_volume   261.02665074
_cell_formula_units_Z   2
loop_
 _symmetry_equiv_pos_site_id
 _symmetry_equiv_pos_as_xyz
  1  'x, y, z'
loop_
 _atom_site_type_symbol
 _atom_site_label
 _atom_site_symmetry_multiplicity
 _atom_site_fract_x
 _atom_site_fract_y
 _atom_site_fract_z
 _atom_site_occupancy
  Hg  Hg0  1  0.54678000  0.14067000  0.52634000  1
  Hg  Hg1  1  0.54516000  0.63958000  0.07773000  1
  I  I2  1  0.84034000  0.39878000  0.94190000  1
  I  I3  1  0.84399000  0.90032000  0.66156000  1
  Br  Br4  1  0.30034000  0.89486000  0.18454000  1
  Br  Br5  1  0.30164000  0.39578000  0.41923000  1
