# generated using pymatgen
data_MgAlInCl6
_symmetry_space_group_name_H-M   'P 1'
_cell_length_a   6.37121230
_cell_length_b   6.37121230
_cell_length_c   7.14582506
_cell_angle_alpha   90.00000000
_cell_angle_beta   90.00000000
_cell_angle_gamma   120.00000000
_symmetry_Int_Tables_number   1
_chemical_formula_structural   MgAlInCl6
_chemical_formula_sum   'Mg1 Al1 In1 Cl6'
_cell_volume   251.20435514
_cell_formula_units_Z   1
loop_
 _symmetry_equiv_pos_site_id
 _symmetry_equiv_pos_as_xyz
  1  'x, y, z'
loop_
 _atom_site_type_symbol
 _atom_site_label
 _atom_site_symmetry_multiplicity
 _atom_site_fract_x
 _atom_site_fract_y
 _atom_site_fract_z
 _atom_site_occupancy
  Mg  Mg0  1  0.00000000  0.00000000  0.50000000  1
  Al  Al1  1  0.33333333  0.66666667  0.50000000  1
  In  In2  1  0.66666667  0.33333333  0.00000000  1
  Cl  Cl3  1  0.04647754  0.69344476  0.30903003  1
  Cl  Cl4  1  0.04647754  0.35303278  0.69096997  1
  Cl  Cl5  1  0.64696722  0.69344476  0.69096997  1
  Cl  Cl6  1  0.30655524  0.95352246  0.69096997  1
  Cl  Cl7  1  0.64696722  0.95352246  0.30903003  1
  Cl  Cl8  1  0.30655524  0.35303278  0.30903003  1
