# generated using pymatgen
data_LiTlCl2
_symmetry_space_group_name_H-M   'P 1'
_cell_length_a   6.62481267
_cell_length_b   6.62481267
_cell_length_c   6.62481267
_cell_angle_alpha   114.65481950
_cell_angle_beta   114.65481950
_cell_angle_gamma   99.53783841
_symmetry_Int_Tables_number   1
_chemical_formula_structural   LiTlCl2
_chemical_formula_sum   'Li2 Tl2 Cl4'
_cell_volume   218.90395365
_cell_formula_units_Z   2
loop_
 _symmetry_equiv_pos_site_id
 _symmetry_equiv_pos_as_xyz
  1  'x, y, z'
loop_
 _atom_site_type_symbol
 _atom_site_label
 _atom_site_symmetry_multiplicity
 _atom_site_fract_x
 _atom_site_fract_y
 _atom_site_fract_z
 _atom_site_occupancy
  Li  Li0  1  0.25000000  0.75000000  0.50000000  1
  Li  Li1  1  0.50000000  0.50000000  -0.00000000  1
  Tl  Tl2  1  0.75000000  0.25000000  0.50000000  1
  Tl  Tl3  1  0.00000000  0.00000000  0.00000000  1
  Cl  Cl4  1  0.21131344  0.62500000  0.08631344  1
  Cl  Cl5  1  0.53868656  0.12500000  0.91368656  1
  Cl  Cl6  1  0.37500000  0.46131344  0.58631344  1
  Cl  Cl7  1  0.87500000  0.78868656  0.41368656  1
