# generated using pymatgen
data_YHBr2
_symmetry_space_group_name_H-M   'P 1'
_cell_length_a   3.84823425
_cell_length_b   3.84823425
_cell_length_c   7.85244365
_cell_angle_alpha   75.84940717
_cell_angle_beta   75.84940717
_cell_angle_gamma   59.99591110
_symmetry_Int_Tables_number   1
_chemical_formula_structural   YHBr2
_chemical_formula_sum   'Y1 H1 Br2'
_cell_volume   96.60704763
_cell_formula_units_Z   1
loop_
 _symmetry_equiv_pos_site_id
 _symmetry_equiv_pos_as_xyz
  1  'x, y, z'
loop_
 _atom_site_type_symbol
 _atom_site_label
 _atom_site_symmetry_multiplicity
 _atom_site_fract_x
 _atom_site_fract_y
 _atom_site_fract_z
 _atom_site_occupancy
  Y  Y0  1  0.46925682  0.46925682  0.82940179  1
  H  H1  1  0.13592270  0.13592270  0.82930814  1
  Br  Br2  1  0.88732939  0.88732939  0.57444712  1
  Br  Br3  1  0.71780257  0.71780257  0.08425395  1
