# generated using pymatgen
data_LiGaCl4
_symmetry_space_group_name_H-M   'P 1'
_cell_length_a   6.56240144
_cell_length_b   6.56240144
_cell_length_c   6.56240144
_cell_angle_alpha   125.57145253
_cell_angle_beta   125.57145253
_cell_angle_gamma   80.59363583
_symmetry_Int_Tables_number   1
_chemical_formula_structural   LiGaCl4
_chemical_formula_sum   'Li1 Ga1 Cl4'
_cell_volume   180.32002384
_cell_formula_units_Z   1
loop_
 _symmetry_equiv_pos_site_id
 _symmetry_equiv_pos_as_xyz
  1  'x, y, z'
loop_
 _atom_site_type_symbol
 _atom_site_label
 _atom_site_symmetry_multiplicity
 _atom_site_fract_x
 _atom_site_fract_y
 _atom_site_fract_z
 _atom_site_occupancy
  Li  Li0  1  0.75000000  0.25000000  0.50000000  1
  Ga  Ga1  1  0.50000000  0.50000000  -0.00000000  1
  Cl  Cl2  1  0.41992300  0.40109150  0.57135440  1
  Cl  Cl3  1  0.82973710  0.84856860  0.42864560  1
  Cl  Cl4  1  0.15143140  0.58007700  0.98116850  1
  Cl  Cl5  1  0.59890850  0.17026290  0.01883150  1
