# generated using pymatgen
data_PH2F3
_symmetry_space_group_name_H-M   'P 1'
_cell_length_a   4.96891135
_cell_length_b   4.96891135
_cell_length_c   6.15000000
_cell_angle_alpha   90.00000000
_cell_angle_beta   90.00000000
_cell_angle_gamma   109.26779612
_symmetry_Int_Tables_number   1
_chemical_formula_structural   PH2F3
_chemical_formula_sum   'P2 H4 F6'
_cell_volume   143.33868961
_cell_formula_units_Z   2
loop_
 _symmetry_equiv_pos_site_id
 _symmetry_equiv_pos_as_xyz
  1  'x, y, z'
loop_
 _atom_site_type_symbol
 _atom_site_label
 _atom_site_symmetry_multiplicity
 _atom_site_fract_x
 _atom_site_fract_y
 _atom_site_fract_z
 _atom_site_occupancy
  P  P10  1  0.31257000  0.68743000  0.25000000  1.0
  P  P11  1  0.68743000  0.31257000  0.75000000  1.0
  H  H6  1  0.20400000  0.43180000  0.26700000  1.0
  H  H7  1  0.79600000  0.56820000  0.76700000  1.0
  H  H8  1  0.56820000  0.79600000  0.26700000  1.0
  H  H9  1  0.43180000  0.20400000  0.76700000  1.0
  F  F0  1  0.34990000  0.65010000  0.98810000  1.0
  F  F1  1  0.27600000  0.72400000  0.50960000  1.0
  F  F2  1  0.87499000  0.12501000  0.70130000  1.0
  F  F3  1  0.12501000  0.87499000  0.20130000  1.0
  F  F4  1  0.72400000  0.27600000  0.00960000  1.0
  F  F5  1  0.65010000  0.34990000  0.48810000  1.0
