# generated using pymatgen
data_BH6CN3F4
_symmetry_space_group_name_H-M   'P 1'
_cell_length_a   4.87578620
_cell_length_b   4.87578620
_cell_length_c   4.87578620
_cell_angle_alpha   94.53620345
_cell_angle_beta   94.53620345
_cell_angle_gamma   94.53620345
_symmetry_Int_Tables_number   1
_chemical_formula_structural   BH6CN3F4
_chemical_formula_sum   'B1 H6 C1 N3 F4'
_cell_volume   114.76285992
_cell_formula_units_Z   1
loop_
 _symmetry_equiv_pos_site_id
 _symmetry_equiv_pos_as_xyz
  1  'x, y, z'
loop_
 _atom_site_type_symbol
 _atom_site_label
 _atom_site_symmetry_multiplicity
 _atom_site_fract_x
 _atom_site_fract_y
 _atom_site_fract_z
 _atom_site_occupancy
  B  B0  1  0.42129700  0.42129700  0.42129700  1.0
  H  H6  1  0.98008200  0.30758100  0.73717100  1.0
  H  H7  1  0.73717100  0.30758100  0.98008200  1.0
  H  H8  1  0.98008200  0.73717100  0.30758100  1.0
  H  H9  1  0.30758100  0.73717100  0.98008200  1.0
  H  H10  1  0.73717100  0.98008200  0.30758100  1.0
  H  H11  1  0.30758100  0.98008200  0.73717100  1.0
  C  C1  1  0.00730333  0.00730333  0.00730333  1.0
  N  N12  1  0.90084400  0.22310100  0.90084400  1.0
  N  N13  1  0.22310100  0.90084400  0.90084400  1.0
  N  N14  1  0.90084400  0.90084400  0.22310100  1.0
  F  F2  1  0.46348550  0.14311500  0.46348550  1.0
  F  F3  1  0.14311500  0.46348550  0.46348550  1.0
  F  F4  1  0.46348550  0.46348550  0.14311500  1.0
  F  F5  1  0.60085233  0.60085233  0.60085233  1.0
