# generated using pymatgen
data_CaMg2Cl6
_symmetry_space_group_name_H-M   'P 1'
_cell_length_a   7.04859775
_cell_length_b   7.04859775
_cell_length_c   7.04859775
_cell_angle_alpha   56.17948061
_cell_angle_beta   56.17948061
_cell_angle_gamma   56.17948061
_symmetry_Int_Tables_number   1
_chemical_formula_structural   CaMg2Cl6
_chemical_formula_sum   'Ca1 Mg2 Cl6'
_cell_volume   225.72488873
_cell_formula_units_Z   1
loop_
 _symmetry_equiv_pos_site_id
 _symmetry_equiv_pos_as_xyz
  1  'x, y, z'
loop_
 _atom_site_type_symbol
 _atom_site_label
 _atom_site_symmetry_multiplicity
 _atom_site_fract_x
 _atom_site_fract_y
 _atom_site_fract_z
 _atom_site_occupancy
  Ca  Ca0  1  0.20879797  0.20879797  0.20879797  1
  Mg  Mg1  1  0.71309268  0.71309268  0.71309268  1
  Mg  Mg2  1  0.52683662  0.52683662  0.52683662  1
  Cl  Cl3  1  0.77264971  0.46439461  0.12255735  1
  Cl  Cl4  1  0.12255735  0.77264971  0.46439461  1
  Cl  Cl5  1  0.46439461  0.12255735  0.77264971  1
  Cl  Cl6  1  0.32789897  0.61758557  0.91186586  1
  Cl  Cl7  1  0.91186586  0.32789897  0.61758557  1
  Cl  Cl8  1  0.61758557  0.91186586  0.32789897  1
