# generated using pymatgen
data_LiHBr
_symmetry_space_group_name_H-M   'P 1'
_cell_length_a   4.17481344
_cell_length_b   4.22225730
_cell_length_c   7.13433889
_cell_angle_alpha   89.40580028
_cell_angle_beta   89.63217905
_cell_angle_gamma   61.63095561
_symmetry_Int_Tables_number   1
_chemical_formula_structural   LiHBr
_chemical_formula_sum   'Li2 H2 Br2'
_cell_volume   110.64900495
_cell_formula_units_Z   2
loop_
 _symmetry_equiv_pos_site_id
 _symmetry_equiv_pos_as_xyz
  1  'x, y, z'
loop_
 _atom_site_type_symbol
 _atom_site_label
 _atom_site_symmetry_multiplicity
 _atom_site_fract_x
 _atom_site_fract_y
 _atom_site_fract_z
 _atom_site_occupancy
  Li  Li0  1  0.22085906  0.96061087  0.66688828  1
  Li  Li1  1  0.88026956  0.60367622  0.16761554  1
  H  H2  1  0.54910175  0.28696883  0.60138789  1
  H  H3  1  0.54653191  0.25537978  0.49771146  1
  Br  Br4  1  0.88351340  0.61140563  0.81240293  1
  Br  Br5  1  0.21539433  0.94303868  0.28389390  1
