# generated using pymatgen
data_NaBH4
_symmetry_space_group_name_H-M   'P 1'
_cell_length_a   4.57974524
_cell_length_b   4.57974524
_cell_length_c   6.53493941
_cell_angle_alpha   90.00000000
_cell_angle_beta   90.00000000
_cell_angle_gamma   120.00000000
_symmetry_Int_Tables_number   1
_chemical_formula_structural   NaBH4
_chemical_formula_sum   'Na2 B2 H8'
_cell_volume   118.70112570
_cell_formula_units_Z   2
loop_
 _symmetry_equiv_pos_site_id
 _symmetry_equiv_pos_as_xyz
  1  'x, y, z'
loop_
 _atom_site_type_symbol
 _atom_site_label
 _atom_site_symmetry_multiplicity
 _atom_site_fract_x
 _atom_site_fract_y
 _atom_site_fract_z
 _atom_site_occupancy
  Na  Na0  1  0.66666667  0.33333333  0.02403834  1
  Na  Na1  1  0.33333333  0.66666667  0.52403834  1
  B  B2  1  0.66666667  0.33333333  0.43590581  1
  B  B3  1  0.33333333  0.66666667  0.93590581  1
  H  H4  1  0.66666667  0.33333333  0.62306506  1
  H  H5  1  0.33333333  0.66666667  0.12306506  1
  H  H6  1  0.37480165  0.18740082  0.37400500  1
  H  H7  1  0.81259918  0.62519835  0.37400500  1
  H  H8  1  0.81259918  0.18740082  0.37400500  1
  H  H9  1  0.62519835  0.81259918  0.87400500  1
  H  H10  1  0.18740082  0.37480165  0.87400500  1
  H  H11  1  0.18740082  0.81259918  0.87400500  1
