# generated using pymatgen
data_InTeI
_symmetry_space_group_name_H-M   'P 1'
_cell_length_a   6.43932000
_cell_length_b   4.44547000
_cell_length_c   9.28201000
_cell_angle_alpha   76.88108997
_cell_angle_beta   90.00000000
_cell_angle_gamma   90.00000000
_symmetry_Int_Tables_number   1
_chemical_formula_structural   InTeI
_chemical_formula_sum   'In2 Te2 I2'
_cell_volume   258.77039230
_cell_formula_units_Z   2
loop_
 _symmetry_equiv_pos_site_id
 _symmetry_equiv_pos_as_xyz
  1  'x, y, z'
loop_
 _atom_site_type_symbol
 _atom_site_label
 _atom_site_symmetry_multiplicity
 _atom_site_fract_x
 _atom_site_fract_y
 _atom_site_fract_z
 _atom_site_occupancy
  In  In0  1  0.99069000  0.19746000  0.61083000  1
  In  In1  1  0.49069000  0.80254000  0.38917000  1
  Te  Te2  1  0.26538000  0.67380000  0.66081000  1
  Te  Te3  1  0.76538000  0.32620000  0.33919000  1
  I  I4  1  0.22621000  0.91530000  0.15158000  1
  I  I5  1  0.72621000  0.08470000  0.84842000  1
