# generated using pymatgen
data_AgBi2SbO6
_symmetry_space_group_name_H-M   'P 1'
_cell_length_a   5.94768994
_cell_length_b   5.95388408
_cell_length_c   6.10625516
_cell_angle_alpha   90.03821213
_cell_angle_beta   119.12397498
_cell_angle_gamma   119.94317377
_symmetry_Int_Tables_number   1
_chemical_formula_structural   AgBi2SbO6
_chemical_formula_sum   'Ag1 Bi2 Sb1 O6'
_cell_volume   154.97437039
_cell_formula_units_Z   1
loop_
 _symmetry_equiv_pos_site_id
 _symmetry_equiv_pos_as_xyz
  1  'x, y, z'
loop_
 _atom_site_type_symbol
 _atom_site_label
 _atom_site_symmetry_multiplicity
 _atom_site_fract_x
 _atom_site_fract_y
 _atom_site_fract_z
 _atom_site_occupancy
  Ag  Ag0  1  0.53571441  0.76843685  0.30398952  1
  Bi  Bi1  1  0.06137636  0.53068804  0.59232792  1
  Bi  Bi2  1  0.03510731  0.01753760  0.05289618  1
  Sb  Sb3  1  0.64640543  0.32321117  0.96943765  1
  O  O4  1  0.56414729  0.99114922  0.77657823  1
  O  O5  1  0.78518538  0.57252284  0.77614115  1
  O  O6  1  0.20356943  0.21251242  0.77663581  1
  O  O7  1  0.56973550  0.16068179  0.24600765  1
  O  O8  1  0.08554043  0.40873044  0.24522794  1
  O  O9  1  0.83641647  0.67613063  0.24555695  1
