# generated using pymatgen
data_KHI
_symmetry_space_group_name_H-M   'P 1'
_cell_length_a   5.67492000
_cell_length_b   6.21295000
_cell_length_c   7.06684000
_cell_angle_alpha   92.12498000
_cell_angle_beta   90.40725998
_cell_angle_gamma   116.75645997
_symmetry_Int_Tables_number   1
_chemical_formula_structural   KHI
_chemical_formula_sum   'K2 H2 I2'
_cell_volume   222.25221029
_cell_formula_units_Z   2
loop_
 _symmetry_equiv_pos_site_id
 _symmetry_equiv_pos_as_xyz
  1  'x, y, z'
loop_
 _atom_site_type_symbol
 _atom_site_label
 _atom_site_symmetry_multiplicity
 _atom_site_fract_x
 _atom_site_fract_y
 _atom_site_fract_z
 _atom_site_occupancy
  K  K0  1  0.51596000  0.92821000  0.05386000  1
  K  K1  1  0.20809000  0.31314000  0.55883000  1
  H  H2  1  0.83842000  0.56134000  0.82853000  1
  H  H3  1  0.87976000  0.66750000  0.76602000  1
  I  I4  1  0.52554000  0.94318000  0.55289000  1
  I  I5  1  0.19830000  0.29776000  0.05941000  1
