# generated using pymatgen
data_B2O3
_symmetry_space_group_name_H-M   'P 1'
_cell_length_a   4.33000000
_cell_length_b   4.33000000
_cell_length_c   8.39000000
_cell_angle_alpha   90.00000000
_cell_angle_beta   90.00000000
_cell_angle_gamma   120.00000000
_symmetry_Int_Tables_number   1
_chemical_formula_structural   B2O3
_chemical_formula_sum   'B6 O9'
_cell_volume   136.22862878
_cell_formula_units_Z   3
loop_
 _symmetry_equiv_pos_site_id
 _symmetry_equiv_pos_as_xyz
  1  'x, y, z'
loop_
 _atom_site_type_symbol
 _atom_site_label
 _atom_site_symmetry_multiplicity
 _atom_site_fract_x
 _atom_site_fract_y
 _atom_site_fract_z
 _atom_site_occupancy
  B  B0  1  0.10800000  0.32300000  0.91166667  1.0
  B  B1  1  0.21500000  0.89200000  0.57833334  1.0
  B  B2  1  0.67700000  0.78500000  0.24500000  1.0
  B  B3  1  0.57500000  0.52600000  0.67966667  1.0
  B  B4  1  0.95100000  0.42500000  0.34633334  1.0
  B  B5  1  0.47400000  0.04900000  0.01300000  1.0
  O  O6  1  0.49700000  0.24500000  0.57700000  1.0
  O  O7  1  0.75500000  0.25200000  0.91033333  1.0
  O  O8  1  0.74800000  0.50300000  0.24366667  1.0
  O  O9  1  0.32800000  0.52200000  0.78666667  1.0
  O  O10  1  0.19400000  0.67200000  0.45333334  1.0
  O  O11  1  0.47800000  0.80600000  0.12000000  1.0
  O  O12  1  0.90900000  0.82700000  0.66666667  1.0
  O  O13  1  0.91800000  0.09100000  0.33333333  1.0
  O  O14  1  0.17300000  0.08200000  0.00000000  1.0
