# generated using pymatgen
data_SiCl4
_symmetry_space_group_name_H-M   'P 1'
_cell_length_a   6.82928049
_cell_length_b   6.82928049
_cell_length_c   6.82928049
_cell_angle_alpha   128.33305007
_cell_angle_beta   128.33305007
_cell_angle_gamma   76.08611804
_symmetry_Int_Tables_number   1
_chemical_formula_structural   SiCl4
_chemical_formula_sum   'Si1 Cl4'
_cell_volume   190.52440112
_cell_formula_units_Z   1
loop_
 _symmetry_equiv_pos_site_id
 _symmetry_equiv_pos_as_xyz
  1  'x, y, z'
loop_
 _atom_site_type_symbol
 _atom_site_label
 _atom_site_symmetry_multiplicity
 _atom_site_fract_x
 _atom_site_fract_y
 _atom_site_fract_z
 _atom_site_occupancy
  Si  Si0  1  0.00000000  0.00000000  0.00000000  1
  Cl  Cl1  1  0.91237510  0.30660455  1.00000000  1
  Cl  Cl2  1  0.30660455  0.91237510  -0.00000000  1
  Cl  Cl3  1  0.08762490  0.08762490  0.39422945  1
  Cl  Cl4  1  0.69339545  0.69339545  0.60577055  1
