# generated using pymatgen
data_Be2ClF3
_symmetry_space_group_name_H-M   'P 1'
_cell_length_a   4.85464753
_cell_length_b   4.85464753
_cell_length_c   17.71176531
_cell_angle_alpha   90.00000000
_cell_angle_beta   90.00000000
_cell_angle_gamma   62.68300028
_symmetry_Int_Tables_number   1
_chemical_formula_structural   Be2ClF3
_chemical_formula_sum   'Be2 Cl1 F3'
_cell_volume   370.87320324
_cell_formula_units_Z   1
loop_
 _symmetry_equiv_pos_site_id
 _symmetry_equiv_pos_as_xyz
  1  'x, y, z'
loop_
 _atom_site_type_symbol
 _atom_site_label
 _atom_site_symmetry_multiplicity
 _atom_site_fract_x
 _atom_site_fract_y
 _atom_site_fract_z
 _atom_site_occupancy
  Be  Be0  1  0.98954628  0.29962799  0.50358143  1
  Be  Be1  1  0.70037200  0.01045372  0.50358143  1
  Cl  Cl2  1  0.84237849  0.15762151  0.40843905  1
  F  F3  1  0.34548825  0.14982563  0.51142684  1
  F  F4  1  0.85017437  0.65451175  0.51142684  1
  F  F5  1  0.84231194  0.15768806  0.56154434  1
