# generated using pymatgen
data_Zn3Te2Se
_symmetry_space_group_name_H-M   'P 1'
_cell_length_a   7.38944166
_cell_length_b   7.38944166
_cell_length_c   7.38226475
_cell_angle_alpha   80.42974659
_cell_angle_beta   80.42974659
_cell_angle_gamma   120.01167025
_symmetry_Int_Tables_number   1
_chemical_formula_structural   Zn3Te2Se
_chemical_formula_sum   'Zn6 Te4 Se2'
_cell_volume   329.18490860
_cell_formula_units_Z   2
loop_
 _symmetry_equiv_pos_site_id
 _symmetry_equiv_pos_as_xyz
  1  'x, y, z'
loop_
 _atom_site_type_symbol
 _atom_site_label
 _atom_site_symmetry_multiplicity
 _atom_site_fract_x
 _atom_site_fract_y
 _atom_site_fract_z
 _atom_site_occupancy
  Zn  Zn0  1  0.20221093  0.05148385  0.62921933  1
  Zn  Zn1  1  0.05148385  0.20221093  0.12921933  1
  Zn  Zn2  1  0.37204863  0.89130489  0.11130578  1
  Zn  Zn3  1  0.89130489  0.37204863  0.61130578  1
  Zn  Zn4  1  0.73665950  0.56962306  0.11068328  1
  Zn  Zn5  1  0.56962306  0.73665950  0.61068328  1
  Te  Te6  1  0.42708887  0.59591386  0.99283881  1
  Te  Te7  1  0.25956863  0.76505202  0.49265038  1
  Te  Te8  1  0.59591386  0.42708887  0.49283881  1
  Te  Te9  1  0.76505202  0.25956863  0.99265038  1
  Se  Se10  1  0.93162974  0.09244701  0.49202542  1
  Se  Se11  1  0.09244701  0.93162974  0.99202542  1
