# generated using pymatgen
data_ScSeI
_symmetry_space_group_name_H-M   'P 1'
_cell_length_a   3.99793115
_cell_length_b   3.99793115
_cell_length_c   7.48581000
_cell_angle_alpha   74.95743366
_cell_angle_beta   74.95743366
_cell_angle_gamma   60.00544206
_symmetry_Int_Tables_number   1
_chemical_formula_structural   ScSeI
_chemical_formula_sum   'Sc1 Se1 I1'
_cell_volume   98.86172129
_cell_formula_units_Z   1
loop_
 _symmetry_equiv_pos_site_id
 _symmetry_equiv_pos_as_xyz
  1  'x, y, z'
loop_
 _atom_site_type_symbol
 _atom_site_label
 _atom_site_symmetry_multiplicity
 _atom_site_fract_x
 _atom_site_fract_y
 _atom_site_fract_z
 _atom_site_occupancy
  Sc  Sc0  1  0.81647000  0.81647000  0.74666000  1
  Se  Se1  1  0.54121000  0.54121000  0.56743000  1
  I  I2  1  0.06121000  0.06121000  0.02042000  1
