# generated using pymatgen
data_HfZr(SbRh)2
_symmetry_space_group_name_H-M   'P 1'
_cell_length_a   7.73598393
_cell_length_b   7.73598393
_cell_length_c   7.73598393
_cell_angle_alpha   33.54814298
_cell_angle_beta   33.54814298
_cell_angle_gamma   33.54814298
_symmetry_Int_Tables_number   1
_chemical_formula_structural   HfZr(SbRh)2
_chemical_formula_sum   'Hf1 Zr1 Sb2 Rh2'
_cell_volume   125.94000654
_cell_formula_units_Z   1
loop_
 _symmetry_equiv_pos_site_id
 _symmetry_equiv_pos_as_xyz
  1  'x, y, z'
loop_
 _atom_site_type_symbol
 _atom_site_label
 _atom_site_symmetry_multiplicity
 _atom_site_fract_x
 _atom_site_fract_y
 _atom_site_fract_z
 _atom_site_occupancy
  Hf  Hf0  1  0.33322538  0.33322538  0.33322538  1
  Zr  Zr1  1  0.83341113  0.83341113  0.83341113  1
  Sb  Sb2  1  0.08306202  0.08306202  0.08306202  1
  Sb  Sb3  1  0.58360488  0.58360488  0.58360488  1
  Rh  Rh4  1  0.20911213  0.20911213  0.20911213  1
  Rh  Rh5  1  0.70758345  0.70758345  0.70758345  1
