# generated using pymatgen
data_Li2CuPSe4
_symmetry_space_group_name_H-M   'P 1'
_cell_length_a   5.90749679
_cell_length_b   5.91113051
_cell_length_c   6.66666068
_cell_angle_alpha   116.30054172
_cell_angle_beta   116.27390893
_cell_angle_gamma   90.02624091
_symmetry_Int_Tables_number   1
_chemical_formula_structural   Li2CuPSe4
_chemical_formula_sum   'Li2 Cu1 P1 Se4'
_cell_volume   181.45687980
_cell_formula_units_Z   1
loop_
 _symmetry_equiv_pos_site_id
 _symmetry_equiv_pos_as_xyz
  1  'x, y, z'
loop_
 _atom_site_type_symbol
 _atom_site_label
 _atom_site_symmetry_multiplicity
 _atom_site_fract_x
 _atom_site_fract_y
 _atom_site_fract_z
 _atom_site_occupancy
  Li  Li0  1  0.51374044  0.01387593  0.02765267  1
  Li  Li1  1  0.76434166  0.76379084  0.52800106  1
  Cu  Cu2  1  0.01402498  0.51477747  0.02867010  1
  P  P3  1  0.26417598  0.26402115  0.52829103  1
  Se  Se4  1  0.92600103  0.36754425  0.27770705  1
  Se  Se5  1  0.61839925  0.60226926  0.77861790  1
  Se  Se6  1  0.16009000  0.17671890  0.77887325  1
  Se  Se7  1  0.35217765  0.90995220  0.27808494  1
