# generated using pymatgen
data_GaTeBr
_symmetry_space_group_name_H-M   'P 1'
_cell_length_a   4.16982705
_cell_length_b   4.17140583
_cell_length_c   7.44913309
_cell_angle_alpha   73.87214014
_cell_angle_beta   73.99597935
_cell_angle_gamma   60.01490982
_symmetry_Int_Tables_number   1
_chemical_formula_structural   GaTeBr
_chemical_formula_sum   'Ga1 Te1 Br1'
_cell_volume   106.34265267
_cell_formula_units_Z   1
loop_
 _symmetry_equiv_pos_site_id
 _symmetry_equiv_pos_as_xyz
  1  'x, y, z'
loop_
 _atom_site_type_symbol
 _atom_site_label
 _atom_site_symmetry_multiplicity
 _atom_site_fract_x
 _atom_site_fract_y
 _atom_site_fract_z
 _atom_site_occupancy
  Ga  Ga0  1  0.34221757  0.47189371  0.77164803  1
  Te  Te1  1  0.95284271  0.08098110  0.94382867  1
  Br  Br2  1  0.44802972  0.58110519  0.44449330  1
