# generated using pymatgen
data_PSe3Br
_symmetry_space_group_name_H-M   'P 1'
_cell_length_a   7.12988442
_cell_length_b   7.24901292
_cell_length_c   7.96809241
_cell_angle_alpha   89.42966976
_cell_angle_beta   89.22079352
_cell_angle_gamma   61.07681256
_symmetry_Int_Tables_number   1
_chemical_formula_structural   PSe3Br
_chemical_formula_sum   'P2 Se6 Br2'
_cell_volume   360.42409233
_cell_formula_units_Z   2
loop_
 _symmetry_equiv_pos_site_id
 _symmetry_equiv_pos_as_xyz
  1  'x, y, z'
loop_
 _atom_site_type_symbol
 _atom_site_label
 _atom_site_symmetry_multiplicity
 _atom_site_fract_x
 _atom_site_fract_y
 _atom_site_fract_z
 _atom_site_occupancy
  P  P0  1  0.73032660  0.67554019  0.98738743  1
  P  P1  1  0.22776349  0.17613400  0.36583349  1
  Se  Se2  1  0.36454306  0.20776672  0.10507996  1
  Se  Se3  1  0.37426668  0.91972026  0.97026692  1
  Se  Se4  1  0.87229858  0.42301181  0.38585434  1
  Se  Se5  1  0.86569571  0.70873031  0.24446852  1
  Se  Se6  1  0.25395543  0.88873770  0.44471575  1
  Se  Se7  1  0.75914408  0.38730658  0.91253874  1
  Br  Br8  1  0.89855096  0.81133550  0.82559336  1
  Br  Br9  1  0.39720840  0.30942592  0.52214749  1
