# generated using pymatgen
data_LiAgMoO4
_symmetry_space_group_name_H-M   'P 1'
_cell_length_a   5.67272065
_cell_length_b   5.67272065
_cell_length_c   5.67272065
_cell_angle_alpha   125.46759264
_cell_angle_beta   125.46759264
_cell_angle_gamma   80.76496468
_symmetry_Int_Tables_number   1
_chemical_formula_structural   LiAgMoO4
_chemical_formula_sum   'Li1 Ag1 Mo1 O4'
_cell_volume   116.73672245
_cell_formula_units_Z   1
loop_
 _symmetry_equiv_pos_site_id
 _symmetry_equiv_pos_as_xyz
  1  'x, y, z'
loop_
 _atom_site_type_symbol
 _atom_site_label
 _atom_site_symmetry_multiplicity
 _atom_site_fract_x
 _atom_site_fract_y
 _atom_site_fract_z
 _atom_site_occupancy
  Li  Li0  1  0.50000000  0.50000000  -0.00000000  1
  Ag  Ag1  1  0.00000000  0.00000000  0.00000000  1
  Mo  Mo2  1  0.25000000  0.75000000  0.50000000  1
  O  O3  1  0.20579230  0.64408001  0.10608296  1
  O  O4  1  0.35591999  0.46200295  0.56171229  1
  O  O5  1  0.53799705  0.09970934  0.89391704  1
  O  O6  1  0.90029066  0.79420770  0.43828771  1
