# generated using pymatgen
data_LiNbWO6
_symmetry_space_group_name_H-M   'P 1'
_cell_length_a   5.50751912
_cell_length_b   5.50751912
_cell_length_c   5.50751912
_cell_angle_alpha   57.30722372
_cell_angle_beta   57.30722372
_cell_angle_gamma   57.30722372
_symmetry_Int_Tables_number   1
_chemical_formula_structural   LiNbWO6
_chemical_formula_sum   'Li1 Nb1 W1 O6'
_cell_volume   110.80486352
_cell_formula_units_Z   1
loop_
 _symmetry_equiv_pos_site_id
 _symmetry_equiv_pos_as_xyz
  1  'x, y, z'
loop_
 _atom_site_type_symbol
 _atom_site_label
 _atom_site_symmetry_multiplicity
 _atom_site_fract_x
 _atom_site_fract_y
 _atom_site_fract_z
 _atom_site_occupancy
  Li  Li0  1  0.21540900  0.21540900  0.21540900  1
  Nb  Nb1  1  0.48434000  0.48434000  0.48434000  1
  W  W2  1  0.98587200  0.98587200  0.98587200  1
  O  O3  1  0.32624300  0.75928200  0.15693700  1
  O  O4  1  0.75928200  0.15693700  0.32624300  1
  O  O5  1  0.15693700  0.32624300  0.75928200  1
  O  O6  1  0.24148600  0.86854400  0.63488800  1
  O  O7  1  0.86854400  0.63488800  0.24148600  1
  O  O8  1  0.63488800  0.24148600  0.86854400  1
