# generated using pymatgen
data_Na2GePbS4
_symmetry_space_group_name_H-M   'P 1'
_cell_length_a   6.36648876
_cell_length_b   6.36648876
_cell_length_c   6.36522592
_cell_angle_alpha   70.42429736
_cell_angle_beta   70.42429736
_cell_angle_gamma   109.25819425
_symmetry_Int_Tables_number   1
_chemical_formula_structural   Na2GePbS4
_chemical_formula_sum   'Na2 Ge1 Pb1 S4'
_cell_volume   198.61421363
_cell_formula_units_Z   1
loop_
 _symmetry_equiv_pos_site_id
 _symmetry_equiv_pos_as_xyz
  1  'x, y, z'
loop_
 _atom_site_type_symbol
 _atom_site_label
 _atom_site_symmetry_multiplicity
 _atom_site_fract_x
 _atom_site_fract_y
 _atom_site_fract_z
 _atom_site_occupancy
  Na  Na0  1  0.75004978  0.25004102  0.49999816  1
  Na  Na1  1  0.25004102  0.75004978  0.49999816  1
  Ge  Ge2  1  0.49998017  0.49998017  0.00002084  1
  Pb  Pb3  1  0.00000542  0.00000542  0.99993856  1
  S  S4  1  0.49881032  0.49881032  0.64867809  1
  S  S5  1  0.50112953  0.85243534  0.00000182  1
  S  S6  1  0.85243534  0.50112953  0.00000182  1
  S  S7  1  0.14754844  0.14754844  0.35136254  1
