# generated using pymatgen
data_ScBiO3
_symmetry_space_group_name_H-M   'P 1'
_cell_length_a   5.91843577
_cell_length_b   5.91843577
_cell_length_c   5.91843577
_cell_angle_alpha   58.49293568
_cell_angle_beta   58.49293568
_cell_angle_gamma   58.49293568
_symmetry_Int_Tables_number   1
_chemical_formula_structural   ScBiO3
_chemical_formula_sum   'Sc2 Bi2 O6'
_cell_volume   141.53653243
_cell_formula_units_Z   2
loop_
 _symmetry_equiv_pos_site_id
 _symmetry_equiv_pos_as_xyz
  1  'x, y, z'
loop_
 _atom_site_type_symbol
 _atom_site_label
 _atom_site_symmetry_multiplicity
 _atom_site_fract_x
 _atom_site_fract_y
 _atom_site_fract_z
 _atom_site_occupancy
  Sc  Sc0  1  0.22052000  0.22052000  0.22052000  1
  Sc  Sc1  1  0.72052000  0.72052000  0.72052000  1
  Bi  Bi2  1  0.00576900  0.00576900  0.00576900  1
  Bi  Bi3  1  0.50576900  0.50576900  0.50576900  1
  O  O4  1  0.04597400  0.42740800  0.87875400  1
  O  O5  1  0.54597400  0.37875400  0.92740800  1
  O  O6  1  0.37875400  0.92740800  0.54597400  1
  O  O7  1  0.42740800  0.87875400  0.04597400  1
  O  O8  1  0.87875400  0.04597400  0.42740800  1
  O  O9  1  0.92740800  0.54597400  0.37875400  1
