# generated using pymatgen
data_ScIn(BiO3)2
_symmetry_space_group_name_H-M   'P 1'
_cell_length_a   5.96038319
_cell_length_b   5.96038319
_cell_length_c   5.96038319
_cell_angle_alpha   58.58943510
_cell_angle_beta   58.58943510
_cell_angle_gamma   58.58943510
_symmetry_Int_Tables_number   1
_chemical_formula_structural   ScIn(BiO3)2
_chemical_formula_sum   'Sc1 In1 Bi2 O6'
_cell_volume   144.90053626
_cell_formula_units_Z   1
loop_
 _symmetry_equiv_pos_site_id
 _symmetry_equiv_pos_as_xyz
  1  'x, y, z'
loop_
 _atom_site_type_symbol
 _atom_site_label
 _atom_site_symmetry_multiplicity
 _atom_site_fract_x
 _atom_site_fract_y
 _atom_site_fract_z
 _atom_site_occupancy
  Sc  Sc0  1  0.31060089  0.31060089  0.31060089  1
  In  In1  1  0.81001016  0.81001016  0.81001016  1
  Bi  Bi2  1  0.52622293  0.52622293  0.52622293  1
  Bi  Bi3  1  0.02647814  0.02647814  0.02647814  1
  O  O4  1  0.97943799  0.60337788  0.16393509  1
  O  O5  1  0.60337788  0.16393509  0.97943799  1
  O  O6  1  0.16393509  0.97943799  0.60337788  1
  O  O7  1  0.11466250  0.46704920  0.65973752  1
  O  O8  1  0.46704920  0.65973752  0.11466250  1
  O  O9  1  0.65973752  0.11466250  0.46704920  1
