# generated using pymatgen
data_RbCdH6Ir
_symmetry_space_group_name_H-M   'P 1'
_cell_length_a   4.92301483
_cell_length_b   4.92301483
_cell_length_c   6.08956408
_cell_angle_alpha   89.99862749
_cell_angle_beta   89.99862749
_cell_angle_gamma   120.01361978
_symmetry_Int_Tables_number   1
_chemical_formula_structural   RbCdH6Ir
_chemical_formula_sum   'Rb1 Cd1 H6 Ir1'
_cell_volume   127.79666022
_cell_formula_units_Z   1
loop_
 _symmetry_equiv_pos_site_id
 _symmetry_equiv_pos_as_xyz
  1  'x, y, z'
loop_
 _atom_site_type_symbol
 _atom_site_label
 _atom_site_symmetry_multiplicity
 _atom_site_fract_x
 _atom_site_fract_y
 _atom_site_fract_z
 _atom_site_occupancy
  Rb  Rb0  1  0.99992942  0.00007058  0.00000000  1
  Cd  Cd1  1  0.66657674  0.33342326  0.50000000  1
  H  H2  1  0.08487784  0.69706428  0.67171660  1
  H  H3  1  0.30293572  0.91512216  0.32828340  1
  H  H4  1  0.61206010  0.69694442  0.32837707  1
  H  H5  1  0.08480526  0.38774981  0.32845542  1
  H  H6  1  0.30305558  0.38793990  0.67162293  1
  H  H7  1  0.61225019  0.91519474  0.67154458  1
  Ir  Ir8  1  0.33327995  0.66672005  0.50000000  1
