# generated using pymatgen
data_Li2AlBS4
_symmetry_space_group_name_H-M   'P 1'
_cell_length_a   6.06646438
_cell_length_b   6.06646438
_cell_length_c   6.06646438
_cell_angle_alpha   126.02866417
_cell_angle_beta   126.02866417
_cell_angle_gamma   79.84103407
_symmetry_Int_Tables_number   1
_chemical_formula_structural   Li2AlBS4
_chemical_formula_sum   'Li2 Al1 B1 S4'
_cell_volume   141.02389825
_cell_formula_units_Z   1
loop_
 _symmetry_equiv_pos_site_id
 _symmetry_equiv_pos_as_xyz
  1  'x, y, z'
loop_
 _atom_site_type_symbol
 _atom_site_label
 _atom_site_symmetry_multiplicity
 _atom_site_fract_x
 _atom_site_fract_y
 _atom_site_fract_z
 _atom_site_occupancy
  Li  Li0  1  0.50000000  0.50000000  -0.00000000  1
  Li  Li1  1  0.75000000  0.25000000  0.50000000  1
  Al  Al2  1  0.00000000  0.00000000  0.00000000  1
  B  B3  1  0.25000000  0.75000000  0.50000000  1
  S  S4  1  0.33256865  0.85186602  0.91613694  1
  S  S5  1  0.14813398  0.06427092  0.48070263  1
  S  S6  1  0.58356829  0.66743135  0.51929737  1
  S  S7  1  0.93572908  0.41643171  0.08386306  1
