# generated using pymatgen
data_AlSiAgS4
_symmetry_space_group_name_H-M   'P 1'
_cell_length_a   6.27208851
_cell_length_b   6.27208851
_cell_length_c   6.27208851
_cell_angle_alpha   125.42689711
_cell_angle_beta   125.42689711
_cell_angle_gamma   80.83213422
_symmetry_Int_Tables_number   1
_chemical_formula_structural   AlSiAgS4
_chemical_formula_sum   'Al1 Si1 Ag1 S4'
_cell_volume   157.92520082
_cell_formula_units_Z   1
loop_
 _symmetry_equiv_pos_site_id
 _symmetry_equiv_pos_as_xyz
  1  'x, y, z'
loop_
 _atom_site_type_symbol
 _atom_site_label
 _atom_site_symmetry_multiplicity
 _atom_site_fract_x
 _atom_site_fract_y
 _atom_site_fract_z
 _atom_site_occupancy
  Al  Al0  1  0.50000000  0.50000000  1.00000000  1
  Si  Si1  1  0.25000000  0.75000000  0.50000000  1
  Ag  Ag2  1  0.00000000  0.00000000  0.00000000  1
  S  S3  1  0.56989640  0.11140082  0.95411554  1
  S  S4  1  0.88859918  0.84271472  0.45849558  1
  S  S5  1  0.15728528  0.61578086  0.04588446  1
  S  S6  1  0.38421914  0.43010360  0.54150442  1
