# generated using pymatgen
data_LiAg(PbCl3)2
_symmetry_space_group_name_H-M   'P 1'
_cell_length_a   7.12274449
_cell_length_b   7.12532585
_cell_length_c   7.46062525
_cell_angle_alpha   90.05188183
_cell_angle_beta   118.45511806
_cell_angle_gamma   119.93240084
_symmetry_Int_Tables_number   1
_chemical_formula_structural   LiAg(PbCl3)2
_chemical_formula_sum   'Li1 Ag1 Pb2 Cl6'
_cell_volume   273.97628112
_cell_formula_units_Z   1
loop_
 _symmetry_equiv_pos_site_id
 _symmetry_equiv_pos_as_xyz
  1  'x, y, z'
loop_
 _atom_site_type_symbol
 _atom_site_label
 _atom_site_symmetry_multiplicity
 _atom_site_fract_x
 _atom_site_fract_y
 _atom_site_fract_z
 _atom_site_occupancy
  Li  Li0  1  0.63544690  0.31770835  0.95322954  1
  Ag  Ag1  1  0.62513451  0.81265501  0.43847098  1
  Pb  Pb2  1  0.04135329  0.52044701  0.56220332  1
  Pb  Pb3  1  0.03274958  0.01642238  0.04895752  1
  Cl  Cl4  1  0.55404294  0.96719294  0.75164171  1
  Cl  Cl5  1  0.78454886  0.58635544  0.75223071  1
  Cl  Cl6  1  0.16656975  0.19863922  0.75275960  1
  Cl  Cl7  1  0.55626446  0.10954275  0.24196911  1
  Cl  Cl8  1  0.13194335  0.44631018  0.24109596  1
  Cl  Cl9  1  0.79514436  0.68632773  0.24224055  1
