# generated using pymatgen
data_MgHSe
_symmetry_space_group_name_H-M   'P 1'
_cell_length_a   4.29807068
_cell_length_b   4.30505306
_cell_length_c   6.96354169
_cell_angle_alpha   90.04503078
_cell_angle_beta   89.98945540
_cell_angle_gamma   119.84507727
_symmetry_Int_Tables_number   1
_chemical_formula_structural   MgHSe
_chemical_formula_sum   'Mg2 H2 Se2'
_cell_volume   111.76056565
_cell_formula_units_Z   2
loop_
 _symmetry_equiv_pos_site_id
 _symmetry_equiv_pos_as_xyz
  1  'x, y, z'
loop_
 _atom_site_type_symbol
 _atom_site_label
 _atom_site_symmetry_multiplicity
 _atom_site_fract_x
 _atom_site_fract_y
 _atom_site_fract_z
 _atom_site_occupancy
  Mg  Mg0  1  0.13340838  0.73226675  0.28969961  1
  Mg  Mg1  1  0.79960928  0.06722504  0.78766231  1
  H  H2  1  0.46694606  0.39664032  0.20968823  1
  H  H3  1  0.46600341  0.40639308  0.10086885  1
  Se  Se4  1  0.13304838  0.73316641  0.90656459  1
  Se  Se5  1  0.80005449  0.06720839  0.41671641  1
