# generated using pymatgen
data_TlHBr2
_symmetry_space_group_name_H-M   'P 1'
_cell_length_a   5.02159995
_cell_length_b   7.82248155
_cell_length_c   8.37873537
_cell_angle_alpha   70.79676239
_cell_angle_beta   72.59539815
_cell_angle_gamma   71.29733254
_symmetry_Int_Tables_number   1
_chemical_formula_structural   TlHBr2
_chemical_formula_sum   'Tl2 H2 Br4'
_cell_volume   287.42064959
_cell_formula_units_Z   2
loop_
 _symmetry_equiv_pos_site_id
 _symmetry_equiv_pos_as_xyz
  1  'x, y, z'
loop_
 _atom_site_type_symbol
 _atom_site_label
 _atom_site_symmetry_multiplicity
 _atom_site_fract_x
 _atom_site_fract_y
 _atom_site_fract_z
 _atom_site_occupancy
  Tl  Tl0  1  0.47408009  0.70232750  0.89390386  1
  Tl  Tl1  1  0.99877597  0.10168682  0.44382248  1
  H  H2  1  0.94373403  0.17141413  0.93639916  1
  H  H3  1  0.97944187  0.63308777  0.40079771  1
  Br  Br4  1  0.85117826  0.98354456  0.86288060  1
  Br  Br5  1  0.02654356  0.31044228  0.99601489  1
  Br  Br6  1  0.62571116  0.82048187  0.47483504  1
  Br  Br7  1  0.26086122  0.49416349  0.34118789  1
