# generated using pymatgen
data_TeO2
_symmetry_space_group_name_H-M   'P 1'
_cell_length_a   4.68301454
_cell_length_b   4.68301454
_cell_length_c   5.78082735
_cell_angle_alpha   78.52860206
_cell_angle_beta   78.52860206
_cell_angle_gamma   119.95061160
_symmetry_Int_Tables_number   1
_chemical_formula_structural   TeO2
_chemical_formula_sum   'Te2 O4'
_cell_volume   100.79756353
_cell_formula_units_Z   2
loop_
 _symmetry_equiv_pos_site_id
 _symmetry_equiv_pos_as_xyz
  1  'x, y, z'
loop_
 _atom_site_type_symbol
 _atom_site_label
 _atom_site_symmetry_multiplicity
 _atom_site_fract_x
 _atom_site_fract_y
 _atom_site_fract_z
 _atom_site_occupancy
  Te  Te0  1  0.88764000  0.13836000  0.79635000  1
  Te  Te1  1  0.13836000  0.88764000  0.29635000  1
  O  O2  1  0.62897000  0.07255000  0.17652000  1
  O  O3  1  0.07255000  0.62897000  0.67652000  1
  O  O4  1  0.25727000  0.20353000  0.92041000  1
  O  O5  1  0.20353000  0.25727000  0.42041000  1
