# generated using pymatgen
data_YTl(GaCl3)2
_symmetry_space_group_name_H-M   'P 1'
_cell_length_a   7.53528142
_cell_length_b   7.54653494
_cell_length_c   7.95370943
_cell_angle_alpha   61.76172148
_cell_angle_beta   61.74054757
_cell_angle_gamma   60.06196636
_symmetry_Int_Tables_number   1
_chemical_formula_structural   YTl(GaCl3)2
_chemical_formula_sum   'Y1 Tl1 Ga2 Cl6'
_cell_volume   328.18329311
_cell_formula_units_Z   1
loop_
 _symmetry_equiv_pos_site_id
 _symmetry_equiv_pos_as_xyz
  1  'x, y, z'
loop_
 _atom_site_type_symbol
 _atom_site_label
 _atom_site_symmetry_multiplicity
 _atom_site_fract_x
 _atom_site_fract_y
 _atom_site_fract_z
 _atom_site_occupancy
  Y  Y0  1  0.67648892  0.67650672  0.97028812  1
  Tl  Tl1  1  0.18853327  0.18816457  0.43515831  1
  Ga  Ga2  1  0.48072814  0.48065163  0.55852300  1
  Ga  Ga3  1  0.98907563  0.98829269  0.03373365  1
  Cl  Cl4  1  0.43410356  0.03123753  0.76551103  1
  Cl  Cl5  1  0.76944050  0.43464659  0.76453131  1
  Cl  Cl6  1  0.03143314  0.76963247  0.76544045  1
  Cl  Cl7  1  0.60696380  0.85432950  0.23108295  1
  Cl  Cl8  1  0.30701444  0.60705181  0.22996646  1
  Cl  Cl9  1  0.85462159  0.30788552  0.23056372  1
