# generated using pymatgen
data_NaGaO2
_symmetry_space_group_name_H-M   'P 1'
_cell_length_a   5.49800000
_cell_length_b   7.20600000
_cell_length_c   5.29800000
_cell_angle_alpha   90.00000000
_cell_angle_beta   90.00000000
_cell_angle_gamma   90.00000000
_symmetry_Int_Tables_number   1
_chemical_formula_structural   NaGaO2
_chemical_formula_sum   'Na4 Ga4 O8'
_cell_volume   209.89927922
_cell_formula_units_Z   4
loop_
 _symmetry_equiv_pos_site_id
 _symmetry_equiv_pos_as_xyz
  1  'x, y, z'
loop_
 _atom_site_type_symbol
 _atom_site_label
 _atom_site_symmetry_multiplicity
 _atom_site_fract_x
 _atom_site_fract_y
 _atom_site_fract_z
 _atom_site_occupancy
  Na  Na0  1  0.06590000  0.62310000  0.01110000  1.0
  Na  Na1  1  0.43410000  0.12310000  0.51110000  1.0
  Na  Na2  1  0.93410000  0.37690000  0.51110000  1.0
  Na  Na3  1  0.56590000  0.87690000  0.01110000  1.0
  Ga  Ga4  1  0.06330000  0.12600000  0.00000000  1.0
  Ga  Ga5  1  0.93670000  0.87400000  0.50000000  1.0
  Ga  Ga6  1  0.43670000  0.62600000  0.50000000  1.0
  Ga  Ga7  1  0.56330000  0.37400000  0.00000000  1.0
  O  O8  1  0.46360000  0.58640000  0.15840000  1.0
  O  O9  1  0.53640000  0.41360000  0.65840000  1.0
  O  O10  1  0.03640000  0.08640000  0.65840000  1.0
  O  O11  1  0.96360000  0.91360000  0.15840000  1.0
  O  O12  1  0.88470000  0.33510000  0.08000000  1.0
  O  O13  1  0.38470000  0.16490000  0.08000000  1.0
  O  O14  1  0.61530000  0.83510000  0.58000000  1.0
  O  O15  1  0.11530000  0.66490000  0.58000000  1.0
