# generated using pymatgen
data_ZnHIO4
_symmetry_space_group_name_H-M   'P 1'
_cell_length_a   6.49405907
_cell_length_b   6.49405907
_cell_length_c   6.42136829
_cell_angle_alpha   87.42944458
_cell_angle_beta   87.42944458
_cell_angle_gamma   129.98437412
_symmetry_Int_Tables_number   1
_chemical_formula_structural   ZnHIO4
_chemical_formula_sum   'Zn2 H2 I2 O8'
_cell_volume   206.32668486
_cell_formula_units_Z   2
loop_
 _symmetry_equiv_pos_site_id
 _symmetry_equiv_pos_as_xyz
  1  'x, y, z'
loop_
 _atom_site_type_symbol
 _atom_site_label
 _atom_site_symmetry_multiplicity
 _atom_site_fract_x
 _atom_site_fract_y
 _atom_site_fract_z
 _atom_site_occupancy
  Zn  Zn0  1  0.54882000  0.46468900  0.63573600  1
  Zn  Zn1  1  0.46468900  0.54882000  0.13573600  1
  H  H2  1  0.74962700  0.87031500  0.39396600  1
  H  H3  1  0.87031500  0.74962700  0.89396600  1
  I  I4  1  0.93739600  0.30587300  0.86534700  1
  I  I5  1  0.30587300  0.93739600  0.36534700  1
  O  O6  1  0.14452300  0.22162100  0.76898000  1
  O  O7  1  0.22162100  0.14452300  0.26898000  1
  O  O8  1  0.65326100  0.98436300  0.00133200  1
  O  O9  1  0.98436300  0.65326100  0.50133200  1
  O  O10  1  0.12676400  0.49407500  0.08731900  1
  O  O11  1  0.49407500  0.12676400  0.58731900  1
  O  O12  1  0.56394500  0.70033600  0.41532000  1
  O  O13  1  0.70033600  0.56394500  0.91532000  1
