# generated using pymatgen
data_HI
_symmetry_space_group_name_H-M   'P 1'
_cell_length_a   4.63207236
_cell_length_b   4.63207236
_cell_length_c   5.92072586
_cell_angle_alpha   90.00000000
_cell_angle_beta   90.00000000
_cell_angle_gamma   101.12740934
_symmetry_Int_Tables_number   1
_chemical_formula_structural   HI
_chemical_formula_sum   'H2 I2'
_cell_volume   124.64743984
_cell_formula_units_Z   2
loop_
 _symmetry_equiv_pos_site_id
 _symmetry_equiv_pos_as_xyz
  1  'x, y, z'
loop_
 _atom_site_type_symbol
 _atom_site_label
 _atom_site_symmetry_multiplicity
 _atom_site_fract_x
 _atom_site_fract_y
 _atom_site_fract_z
 _atom_site_occupancy
  H  H0  1  0.05287737  0.05287737  0.31262173  1
  H  H1  1  0.94712263  0.94712263  0.81262173  1
  I  I2  1  0.25646139  0.25646139  0.50837827  1
  I  I3  1  0.74353861  0.74353861  0.00837827  1
