# generated using pymatgen
data_YTlGeCl6
_symmetry_space_group_name_H-M   'P 1'
_cell_length_a   6.99815090
_cell_length_b   6.99815090
_cell_length_c   6.99763017
_cell_angle_alpha   89.99633264
_cell_angle_beta   89.99633264
_cell_angle_gamma   119.99692182
_symmetry_Int_Tables_number   1
_chemical_formula_structural   YTlGeCl6
_chemical_formula_sum   'Y1 Tl1 Ge1 Cl6'
_cell_volume   296.79849212
_cell_formula_units_Z   1
loop_
 _symmetry_equiv_pos_site_id
 _symmetry_equiv_pos_as_xyz
  1  'x, y, z'
loop_
 _atom_site_type_symbol
 _atom_site_label
 _atom_site_symmetry_multiplicity
 _atom_site_fract_x
 _atom_site_fract_y
 _atom_site_fract_z
 _atom_site_occupancy
  Y  Y0  1  0.33329672  0.66670328  0.50000000  1
  Tl  Tl1  1  0.99999996  0.00000003  0.00000000  1
  Ge  Ge2  1  0.66667522  0.33332478  0.50000000  1
  Cl  Cl3  1  0.36873330  0.37204320  0.71520097  1
  Cl  Cl4  1  0.00329310  0.37204664  0.28481202  1
  Cl  Cl5  1  0.36872741  0.99663032  0.28482650  1
  Cl  Cl6  1  0.62795680  0.63126670  0.28479903  1
  Cl  Cl7  1  0.62795336  0.99670690  0.71518798  1
  Cl  Cl8  1  0.00336968  0.63127259  0.71517350  1
