# generated using pymatgen
data_Tl2MoO4
_symmetry_space_group_name_H-M   'P 1'
_cell_length_a   6.52051872
_cell_length_b   6.52051872
_cell_length_c   6.30223482
_cell_angle_alpha   62.12414621
_cell_angle_beta   62.12414621
_cell_angle_gamma   91.98255935
_symmetry_Int_Tables_number   1
_chemical_formula_structural   Tl2MoO4
_chemical_formula_sum   'Tl2 Mo1 O4'
_cell_volume   198.07841633
_cell_formula_units_Z   1
loop_
 _symmetry_equiv_pos_site_id
 _symmetry_equiv_pos_as_xyz
  1  'x, y, z'
loop_
 _atom_site_type_symbol
 _atom_site_label
 _atom_site_symmetry_multiplicity
 _atom_site_fract_x
 _atom_site_fract_y
 _atom_site_fract_z
 _atom_site_occupancy
  Tl  Tl0  1  0.23021539  0.80436462  0.48134275  1
  Tl  Tl1  1  0.80436462  0.23021539  0.48134275  1
  Mo  Mo2  1  0.99368436  0.99368436  0.00649486  1
  O  O3  1  0.14266990  0.14266990  0.62353063  1
  O  O4  1  0.14289593  0.14289593  0.10078202  1
  O  O5  1  0.00149638  0.68467342  0.15325351  1
  O  O6  1  0.68467342  0.00149638  0.15325351  1
