# generated using pymatgen
data_Na3NbO4
_symmetry_space_group_name_H-M   'P 1'
_cell_length_a   6.19029102
_cell_length_b   6.19029102
_cell_length_c   6.19029102
_cell_angle_alpha   130.80980773
_cell_angle_beta   130.80980773
_cell_angle_gamma   72.11542933
_symmetry_Int_Tables_number   1
_chemical_formula_structural   Na3NbO4
_chemical_formula_sum   'Na3 Nb1 O4'
_cell_volume   132.87491800
_cell_formula_units_Z   1
loop_
 _symmetry_equiv_pos_site_id
 _symmetry_equiv_pos_as_xyz
  1  'x, y, z'
loop_
 _atom_site_type_symbol
 _atom_site_label
 _atom_site_symmetry_multiplicity
 _atom_site_fract_x
 _atom_site_fract_y
 _atom_site_fract_z
 _atom_site_occupancy
  Na  Na0  1  0.50000000  0.50000000  0.00000000  1
  Na  Na1  1  0.25000000  0.75000000  0.50000000  1
  Na  Na2  1  0.75000000  0.25000000  0.50000000  1
  Nb  Nb3  1  0.00000000  0.00000000  0.00000000  1
  O  O4  1  0.31994505  0.31994505  0.42250776  1
  O  O5  1  0.68005494  0.10256271  0.00000000  1
  O  O6  1  0.10256271  0.68005494  -0.00000000  1
  O  O7  1  0.89743730  0.89743730  0.57749224  1
