# generated using pymatgen
data_H3IBr2
_symmetry_space_group_name_H-M   'P 1'
_cell_length_a   11.88516605
_cell_length_b   11.88516605
_cell_length_c   5.62527459
_cell_angle_alpha   90.00000000
_cell_angle_beta   90.00000000
_cell_angle_gamma   150.81858128
_symmetry_Int_Tables_number   1
_chemical_formula_structural   H3IBr2
_chemical_formula_sum   'H6 I2 Br4'
_cell_volume   387.43338054
_cell_formula_units_Z   2
loop_
 _symmetry_equiv_pos_site_id
 _symmetry_equiv_pos_as_xyz
  1  'x, y, z'
loop_
 _atom_site_type_symbol
 _atom_site_label
 _atom_site_symmetry_multiplicity
 _atom_site_fract_x
 _atom_site_fract_y
 _atom_site_fract_z
 _atom_site_occupancy
  H  H0  1  0.62120127  0.27862830  0.75544332  1
  H  H1  1  0.72137170  0.37879873  0.25544332  1
  H  H2  1  0.27862830  0.62120127  0.75544332  1
  H  H3  1  0.37879873  0.72137170  0.25544332  1
  H  H4  1  0.05225697  0.05225697  0.85142764  1
  H  H5  1  0.94774304  0.94774304  0.35142764  1
  I  I6  1  0.25902868  0.25902868  0.05037503  1
  I  I7  1  0.74097132  0.74097132  0.55037503  1
  Br  Br8  1  0.45457495  0.11188958  0.56465135  1
  Br  Br9  1  0.88811042  0.54542505  0.06465135  1
  Br  Br10  1  0.11188958  0.45457495  0.56465135  1
  Br  Br11  1  0.54542505  0.88811042  0.06465135  1
