# generated using pymatgen
data_Li2ZnCl4
_symmetry_space_group_name_H-M   'P 1'
_cell_length_a   6.60721803
_cell_length_b   6.60721803
_cell_length_c   6.60721803
_cell_angle_alpha   128.55699707
_cell_angle_beta   128.55699707
_cell_angle_gamma   75.72443618
_symmetry_Int_Tables_number   1
_chemical_formula_structural   Li2ZnCl4
_chemical_formula_sum   'Li2 Zn1 Cl4'
_cell_volume   171.56782291
_cell_formula_units_Z   1
loop_
 _symmetry_equiv_pos_site_id
 _symmetry_equiv_pos_as_xyz
  1  'x, y, z'
loop_
 _atom_site_type_symbol
 _atom_site_label
 _atom_site_symmetry_multiplicity
 _atom_site_fract_x
 _atom_site_fract_y
 _atom_site_fract_z
 _atom_site_occupancy
  Li  Li0  1  0.75000000  0.25000000  0.50000000  1
  Li  Li1  1  0.25000000  0.75000000  0.50000000  1
  Zn  Zn2  1  0.50000000  0.50000000  -0.00000000  1
  Cl  Cl3  1  0.85821294  0.85821294  0.46373733  1
  Cl  Cl4  1  0.39447561  0.39447561  0.53626267  1
  Cl  Cl5  1  0.60552439  0.14178706  1.00000000  1
  Cl  Cl6  1  0.14178706  0.60552439  -0.00000000  1
