# generated using pymatgen
data_Li2CdGeO4
_symmetry_space_group_name_H-M   'P 1'
_cell_length_a   6.64000000
_cell_length_b   5.47000000
_cell_length_c   5.13000000
_cell_angle_alpha   90.00000000
_cell_angle_beta   90.00000000
_cell_angle_gamma   90.00000000
_symmetry_Int_Tables_number   1
_chemical_formula_structural   Li2CdGeO4
_chemical_formula_sum   'Li4 Cd2 Ge2 O8'
_cell_volume   186.32570400
_cell_formula_units_Z   2
loop_
 _symmetry_equiv_pos_site_id
 _symmetry_equiv_pos_as_xyz
  1  'x, y, z'
loop_
 _atom_site_type_symbol
 _atom_site_label
 _atom_site_symmetry_multiplicity
 _atom_site_fract_x
 _atom_site_fract_y
 _atom_site_fract_z
 _atom_site_occupancy
  Li  Li0  1  0.24100000  0.83300000  0.99000000  1.0
  Li  Li1  1  0.74100000  0.16700000  0.49000000  1.0
  Li  Li2  1  0.75900000  0.83300000  0.99000000  1.0
  Li  Li3  1  0.25900000  0.16700000  0.49000000  1.0
  Cd  Cd4  1  0.50000000  0.67900000  0.50000000  1.0
  Cd  Cd5  1  0.00000000  0.32100000  0.00000000  1.0
  Ge  Ge6  1  0.00000000  0.68700000  0.49900000  1.0
  Ge  Ge7  1  0.50000000  0.31300000  0.99900000  1.0
  O  O8  1  0.00000000  0.34000000  0.55900000  1.0
  O  O9  1  0.00000000  0.69400000  0.12000000  1.0
  O  O10  1  0.50000000  0.66000000  0.05900000  1.0
  O  O11  1  0.50000000  0.30600000  0.62000000  1.0
  O  O12  1  0.28600000  0.16000000  0.10700000  1.0
  O  O13  1  0.21400000  0.84000000  0.60700000  1.0
  O  O14  1  0.78600000  0.84000000  0.60700000  1.0
  O  O15  1  0.71400000  0.16000000  0.10700000  1.0
