# generated using pymatgen
data_Y2HfMgO6
_symmetry_space_group_name_H-M   'P 1'
_cell_length_a   5.58657799
_cell_length_b   5.58658816
_cell_length_c   5.79943187
_cell_angle_alpha   90.00481314
_cell_angle_beta   118.79032433
_cell_angle_gamma   119.99666416
_symmetry_Int_Tables_number   1
_chemical_formula_structural   Y2HfMgO6
_chemical_formula_sum   'Y2 Hf1 Mg1 O6'
_cell_volume   130.27782119
_cell_formula_units_Z   1
loop_
 _symmetry_equiv_pos_site_id
 _symmetry_equiv_pos_as_xyz
  1  'x, y, z'
loop_
 _atom_site_type_symbol
 _atom_site_label
 _atom_site_symmetry_multiplicity
 _atom_site_fract_x
 _atom_site_fract_y
 _atom_site_fract_z
 _atom_site_occupancy
  Y  Y0  1  0.06150059  0.53073739  0.59221995  1
  Y  Y1  1  0.06352046  0.03179294  0.09526573  1
  Hf  Hf2  1  0.62695230  0.31355565  0.94041207  1
  Mg  Mg3  1  0.62261210  0.81127963  0.43406089  1
  O  O4  1  0.78238322  0.59510459  0.73951161  1
  O  O5  1  0.14444124  0.18729509  0.73955571  1
  O  O6  1  0.55231181  0.95715211  0.73958036  1
  O  O7  1  0.12924294  0.44654858  0.23472453  1
  O  O8  1  0.78819840  0.68274619  0.23474314  1
  O  O9  1  0.55203494  0.10538483  0.23472501  1
