# generated using pymatgen
data_Mg(ClO3)2
_symmetry_space_group_name_H-M   'P 1'
_cell_length_a   7.08935216
_cell_length_b   7.08935216
_cell_length_c   7.08935216
_cell_angle_alpha   40.16097674
_cell_angle_beta   40.16097674
_cell_angle_gamma   40.16097674
_symmetry_Int_Tables_number   1
_chemical_formula_structural   Mg(ClO3)2
_chemical_formula_sum   'Mg1 Cl2 O6'
_cell_volume   133.57559405
_cell_formula_units_Z   1
loop_
 _symmetry_equiv_pos_site_id
 _symmetry_equiv_pos_as_xyz
  1  'x, y, z'
loop_
 _atom_site_type_symbol
 _atom_site_label
 _atom_site_symmetry_multiplicity
 _atom_site_fract_x
 _atom_site_fract_y
 _atom_site_fract_z
 _atom_site_occupancy
  Mg  Mg0  1  0.66701206  0.66701206  0.66701206  1
  Cl  Cl1  1  0.23689562  0.23689562  0.23689562  1
  Cl  Cl2  1  0.42996101  0.42996101  0.42996101  1
  O  O3  1  0.96186303  0.53692434  0.29447050  1
  O  O4  1  0.53692434  0.29447050  0.96186303  1
  O  O5  1  0.29447050  0.96186303  0.53692434  1
  O  O6  1  0.10102915  0.42954480  0.67661455  1
  O  O7  1  0.42954480  0.67661455  0.10102915  1
  O  O8  1  0.67661455  0.10102915  0.42954480  1
