# generated using pymatgen
data_NaClO3
_symmetry_space_group_name_H-M   'P 1'
_cell_length_a   6.67544456
_cell_length_b   6.67544456
_cell_length_c   6.67544456
_cell_angle_alpha   90.00000000
_cell_angle_beta   90.00000000
_cell_angle_gamma   90.00000000
_symmetry_Int_Tables_number   1
_chemical_formula_structural   NaClO3
_chemical_formula_sum   'Na4 Cl4 O12'
_cell_volume   297.46822378
_cell_formula_units_Z   4
loop_
 _symmetry_equiv_pos_site_id
 _symmetry_equiv_pos_as_xyz
  1  'x, y, z'
loop_
 _atom_site_type_symbol
 _atom_site_label
 _atom_site_symmetry_multiplicity
 _atom_site_fract_x
 _atom_site_fract_y
 _atom_site_fract_z
 _atom_site_occupancy
  Na  Na0  1  0.06800261  0.06800261  0.06800261  1
  Na  Na1  1  0.43199739  0.93199739  0.56800261  1
  Na  Na2  1  0.56800261  0.43199739  0.93199739  1
  Na  Na3  1  0.93199739  0.56800261  0.43199739  1
  Cl  Cl4  1  0.41796738  0.41796738  0.41796738  1
  Cl  Cl5  1  0.08203262  0.58203262  0.91796738  1
  Cl  Cl6  1  0.91796738  0.08203262  0.58203262  1
  Cl  Cl7  1  0.58203262  0.91796738  0.08203262  1
  O  O8  1  0.19599044  0.40572050  0.00185736  1
  O  O9  1  0.69599044  0.09427950  0.99814264  1
  O  O10  1  0.80400956  0.90572050  0.49814264  1
  O  O11  1  0.09427950  0.99814264  0.69599044  1
  O  O12  1  0.49814264  0.80400956  0.90572050  1
  O  O13  1  0.99814264  0.69599044  0.09427950  1
  O  O14  1  0.40572050  0.00185736  0.19599044  1
  O  O15  1  0.00185736  0.19599044  0.40572050  1
  O  O16  1  0.30400956  0.59427950  0.50185736  1
  O  O17  1  0.50185736  0.30400956  0.59427950  1
  O  O18  1  0.59427950  0.50185736  0.30400956  1
  O  O19  1  0.90572050  0.49814264  0.80400956  1
