# generated using pymatgen
data_BBrF2
_symmetry_space_group_name_H-M   'P 1'
_cell_length_a   5.41979058
_cell_length_b   5.41979058
_cell_length_c   5.41979058
_cell_angle_alpha   119.01721392
_cell_angle_beta   112.78409868
_cell_angle_gamma   97.33485016
_symmetry_Int_Tables_number   1
_chemical_formula_structural   BBrF2
_chemical_formula_sum   'B1 Br1 F2'
_cell_volume   118.11763790
_cell_formula_units_Z   1
loop_
 _symmetry_equiv_pos_site_id
 _symmetry_equiv_pos_as_xyz
  1  'x, y, z'
loop_
 _atom_site_type_symbol
 _atom_site_label
 _atom_site_symmetry_multiplicity
 _atom_site_fract_x
 _atom_site_fract_y
 _atom_site_fract_z
 _atom_site_occupancy
  B  B0  1  0.62737912  0.00000000  0.62737912  1
  Br  Br1  1  0.94478055  -0.00000000  0.94478055  1
  F  F2  1  0.35445489  0.84053523  0.51391967  1
  F  F3  1  0.67338444  0.15946478  0.51391967  1
