# generated using pymatgen
data_BeBrF
_symmetry_space_group_name_H-M   'P 1'
_cell_length_a   4.99954494
_cell_length_b   9.07077808
_cell_length_c   18.43828902
_cell_angle_alpha   90.00000000
_cell_angle_beta   90.00000000
_cell_angle_gamma   90.00000000
_symmetry_Int_Tables_number   1
_chemical_formula_structural   BeBrF
_chemical_formula_sum   'Be4 Br4 F4'
_cell_volume   836.17203077
_cell_formula_units_Z   4
loop_
 _symmetry_equiv_pos_site_id
 _symmetry_equiv_pos_as_xyz
  1  'x, y, z'
loop_
 _atom_site_type_symbol
 _atom_site_label
 _atom_site_symmetry_multiplicity
 _atom_site_fract_x
 _atom_site_fract_y
 _atom_site_fract_z
 _atom_site_occupancy
  Be  Be0  1  0.50993967  0.65309053  0.49460700  1
  Be  Be1  1  0.50993967  0.34690946  0.50539300  1
  Be  Be2  1  0.00993967  0.84690946  0.49460700  1
  Be  Be3  1  0.00993967  0.15309053  0.50539300  1
  Br  Br4  1  0.97731350  0.01372025  0.40676225  1
  Br  Br5  1  0.97731350  0.98627975  0.59323775  1
  Br  Br6  1  0.47731350  0.48627974  0.40676225  1
  Br  Br7  1  0.47731350  0.51372025  0.59323775  1
  F  F8  1  0.28512687  0.23068575  0.50920279  1
  F  F9  1  0.28512687  0.76931425  0.49079721  1
  F  F10  1  0.78512687  0.26931424  0.50920279  1
  F  F11  1  0.78512687  0.73068575  0.49079721  1
