# generated using pymatgen
data_BeBrF
_symmetry_space_group_name_H-M   'P 1'
_cell_length_a   4.90848409
_cell_length_b   3.51131525
_cell_length_c   7.77008733
_cell_angle_alpha   77.11875077
_cell_angle_beta   90.00000000
_cell_angle_gamma   90.00000000
_symmetry_Int_Tables_number   1
_chemical_formula_structural   BeBrF
_chemical_formula_sum   'Be2 Br2 F2'
_cell_volume   130.54909596
_cell_formula_units_Z   2
loop_
 _symmetry_equiv_pos_site_id
 _symmetry_equiv_pos_as_xyz
  1  'x, y, z'
loop_
 _atom_site_type_symbol
 _atom_site_label
 _atom_site_symmetry_multiplicity
 _atom_site_fract_x
 _atom_site_fract_y
 _atom_site_fract_z
 _atom_site_occupancy
  Be  Be0  1  0.66232369  0.05656794  0.38398018  1
  Be  Be1  1  0.16232369  0.94343206  0.61601982  1
  Br  Br2  1  0.59813652  0.64254728  0.21006884  1
  Br  Br3  1  0.09813652  0.35745272  0.78993116  1
  F  F4  1  0.45566979  0.98074502  0.53955323  1
  F  F5  1  0.95566979  0.01925498  0.46044677  1
