# generated using pymatgen
data_NaH2Cl
_symmetry_space_group_name_H-M   'P 1'
_cell_length_a   5.12395118
_cell_length_b   4.49865298
_cell_length_c   4.49949354
_cell_angle_alpha   61.47742196
_cell_angle_beta   90.00000000
_cell_angle_gamma   90.00000000
_symmetry_Int_Tables_number   1
_chemical_formula_structural   NaH2Cl
_chemical_formula_sum   'Na1 H2 Cl1'
_cell_volume   91.12900956
_cell_formula_units_Z   1
loop_
 _symmetry_equiv_pos_site_id
 _symmetry_equiv_pos_as_xyz
  1  'x, y, z'
loop_
 _atom_site_type_symbol
 _atom_site_label
 _atom_site_symmetry_multiplicity
 _atom_site_fract_x
 _atom_site_fract_y
 _atom_site_fract_z
 _atom_site_occupancy
  Na  Na0  1  0.00000000  0.61217582  0.71218255  1
  H  H1  1  0.50000000  0.59675405  0.53281017  1
  H  H2  1  0.50000000  0.43176469  0.69653673  1
  Cl  Cl3  1  0.00000000  0.95015544  0.05053155  1
