# generated using pymatgen
data_GaH3NF3
_symmetry_space_group_name_H-M   'P 1'
_cell_length_a   5.44600000
_cell_length_b   5.44600000
_cell_length_c   5.63464444
_cell_angle_alpha   90.00000000
_cell_angle_beta   61.10144484
_cell_angle_gamma   90.00000000
_symmetry_Int_Tables_number   1
_chemical_formula_structural   GaH3NF3
_chemical_formula_sum   'Ga2 H6 N2 F6'
_cell_volume   146.30743255
_cell_formula_units_Z   2
loop_
 _symmetry_equiv_pos_site_id
 _symmetry_equiv_pos_as_xyz
  1  'x, y, z'
loop_
 _atom_site_type_symbol
 _atom_site_label
 _atom_site_symmetry_multiplicity
 _atom_site_fract_x
 _atom_site_fract_y
 _atom_site_fract_z
 _atom_site_occupancy
  Ga  Ga6  1  0.15320000  0.74950000  0.19360000  1.0
  Ga  Ga7  1  0.65320000  0.25050000  0.19360000  1.0
  H  H8  1  0.36700000  0.93500000  0.76600000  1.0
  H  H9  1  0.86700000  0.06500000  0.76600000  1.0
  H  H10  1  0.25300000  0.73000000  0.75200000  1.0
  H  H11  1  0.99500000  0.27000000  0.75200000  1.0
  H  H12  1  0.75300000  0.27000000  0.75200000  1.0
  H  H13  1  0.49500000  0.73000000  0.75200000  1.0
  N  N14  1  0.34000000  0.76900000  0.82000000  1.0
  N  N15  1  0.84000000  0.23100000  0.82000000  1.0
  F  F0  1  0.90760000  0.50000000  0.18480000  1.0
  F  F1  1  0.40760000  0.50000000  0.18480000  1.0
  F  F2  1  0.88780000  0.00000000  0.22440000  1.0
  F  F3  1  0.38780000  0.00000000  0.22440000  1.0
  F  F4  1  0.95800000  0.72370000  0.58400000  1.0
  F  F5  1  0.45800000  0.27630000  0.58400000  1.0
