# generated using pymatgen
data_CsBH4
_symmetry_space_group_name_H-M   'P 1'
_cell_length_a   5.26382488
_cell_length_b   5.26382488
_cell_length_c   5.52648833
_cell_angle_alpha   58.41235484
_cell_angle_beta   58.41235484
_cell_angle_gamma   61.40534688
_symmetry_Int_Tables_number   1
_chemical_formula_structural   CsBH4
_chemical_formula_sum   'Cs1 B1 H4'
_cell_volume   106.62159438
_cell_formula_units_Z   1
loop_
 _symmetry_equiv_pos_site_id
 _symmetry_equiv_pos_as_xyz
  1  'x, y, z'
loop_
 _atom_site_type_symbol
 _atom_site_label
 _atom_site_symmetry_multiplicity
 _atom_site_fract_x
 _atom_site_fract_y
 _atom_site_fract_z
 _atom_site_occupancy
  Cs  Cs0  1  0.50483679  0.49516321  0.50000000  1
  B  B1  1  0.00230036  0.99769964  -0.00000000  1
  H  H2  1  0.23192679  0.96104452  0.77308584  1
  H  H3  1  0.77053305  0.03224848  0.97040714  1
  H  H4  1  0.03895548  0.76807321  0.22691416  1
  H  H5  1  0.96775152  0.22946695  0.02959286  1
