# generated using pymatgen
data_Li2SO4
_symmetry_space_group_name_H-M   'P 1'
_cell_length_a   5.09068828
_cell_length_b   5.24649529
_cell_length_c   6.30003929
_cell_angle_alpha   93.12985806
_cell_angle_beta   96.76431336
_cell_angle_gamma   93.17151584
_symmetry_Int_Tables_number   1
_chemical_formula_structural   Li2SO4
_chemical_formula_sum   'Li4 S2 O8'
_cell_volume   166.51874333
_cell_formula_units_Z   2
loop_
 _symmetry_equiv_pos_site_id
 _symmetry_equiv_pos_as_xyz
  1  'x, y, z'
loop_
 _atom_site_type_symbol
 _atom_site_label
 _atom_site_symmetry_multiplicity
 _atom_site_fract_x
 _atom_site_fract_y
 _atom_site_fract_z
 _atom_site_occupancy
  Li  Li0  1  0.41972094  0.01367147  0.68364122  1
  Li  Li1  1  0.00745483  0.57398488  0.28119086  1
  Li  Li2  1  0.49921260  0.92784534  0.21320404  1
  Li  Li3  1  0.08644357  0.54068686  0.80098076  1
  S  S4  1  0.96855693  0.03491560  0.98240561  1
  S  S5  1  0.52531139  0.45935003  0.52262924  1
  O  O6  1  0.01565310  0.31478820  0.03762831  1
  O  O7  1  0.86922879  0.90283795  0.16423259  1
  O  O8  1  0.78571248  0.98862884  0.78455254  1
  O  O9  1  0.44087377  0.21282240  0.40142050  1
  O  O10  1  0.44230173  0.44235098  0.73998257  1
  O  O11  1  0.22670966  0.91817811  0.94327863  1
  O  O12  1  0.81742789  0.51059813  0.53216426  1
  O  O13  1  0.38564433  0.67357421  0.41611387  1
