# generated using pymatgen
data_Li3ZrF7
_symmetry_space_group_name_H-M   'P 1'
_cell_length_a   5.34782751
_cell_length_b   5.34782751
_cell_length_c   5.74800647
_cell_angle_alpha   67.50560480
_cell_angle_beta   67.50560480
_cell_angle_gamma   88.26482233
_symmetry_Int_Tables_number   1
_chemical_formula_structural   Li3ZrF7
_chemical_formula_sum   'Li3 Zr1 F7'
_cell_volume   139.02202413
_cell_formula_units_Z   1
loop_
 _symmetry_equiv_pos_site_id
 _symmetry_equiv_pos_as_xyz
  1  'x, y, z'
loop_
 _atom_site_type_symbol
 _atom_site_label
 _atom_site_symmetry_multiplicity
 _atom_site_fract_x
 _atom_site_fract_y
 _atom_site_fract_z
 _atom_site_occupancy
  Li  Li0  1  0.63787753  0.15808000  0.58954549  1
  Li  Li1  1  0.58357898  0.58357898  0.74449164  1
  Li  Li2  1  0.15808000  0.63787753  0.58954549  1
  Zr  Zr3  1  0.98049586  0.98049586  0.99740642  1
  F  F4  1  0.31317612  0.31317612  0.78341007  1
  F  F5  1  0.31428042  0.85405867  0.73007665  1
  F  F6  1  0.20410037  0.82646581  0.22636723  1
  F  F7  1  0.85405867  0.31428042  0.73007665  1
  F  F8  1  0.81373734  0.81373734  0.79672597  1
  F  F9  1  0.82646581  0.20410037  0.22636723  1
  F  F10  1  0.68914390  0.68914390  0.33598916  1
