# generated using pymatgen
data_CsLiSiF6
_symmetry_space_group_name_H-M   'P 1'
_cell_length_a   5.16665276
_cell_length_b   5.16665276
_cell_length_c   6.44116868
_cell_angle_alpha   89.98568810
_cell_angle_beta   89.98568810
_cell_angle_gamma   120.03221486
_symmetry_Int_Tables_number   1
_chemical_formula_structural   CsLiSiF6
_chemical_formula_sum   'Cs1 Li1 Si1 F6'
_cell_volume   148.85818761
_cell_formula_units_Z   1
loop_
 _symmetry_equiv_pos_site_id
 _symmetry_equiv_pos_as_xyz
  1  'x, y, z'
loop_
 _atom_site_type_symbol
 _atom_site_label
 _atom_site_symmetry_multiplicity
 _atom_site_fract_x
 _atom_site_fract_y
 _atom_site_fract_z
 _atom_site_occupancy
  Cs  Cs0  1  0.99986033  0.00013967  0.00000000  1
  Li  Li1  1  0.33341739  0.66658261  0.50000000  1
  Si  Si2  1  0.66665668  0.33334332  0.50000000  1
  F  F3  1  0.94889804  0.35367707  0.65386226  1
  F  F4  1  0.64632293  0.05110196  0.34613774  1
  F  F5  1  0.40476696  0.35364430  0.34612138  1
  F  F6  1  0.94913884  0.59546907  0.34609232  1
  F  F7  1  0.64635570  0.59523304  0.65387862  1
  F  F8  1  0.40453093  0.05086116  0.65390768  1
