# generated using pymatgen
data_NaSrAlF6
_symmetry_space_group_name_H-M   'P 1'
_cell_length_a   5.47155196
_cell_length_b   5.47155196
_cell_length_c   5.02219590
_cell_angle_alpha   90.00000000
_cell_angle_beta   90.00000000
_cell_angle_gamma   120.00000000
_symmetry_Int_Tables_number   1
_chemical_formula_structural   NaSrAlF6
_chemical_formula_sum   'Na1 Sr1 Al1 F6'
_cell_volume   130.21029919
_cell_formula_units_Z   1
loop_
 _symmetry_equiv_pos_site_id
 _symmetry_equiv_pos_as_xyz
  1  'x, y, z'
loop_
 _atom_site_type_symbol
 _atom_site_label
 _atom_site_symmetry_multiplicity
 _atom_site_fract_x
 _atom_site_fract_y
 _atom_site_fract_z
 _atom_site_occupancy
  Na  Na0  1  0.00000000  0.00000000  0.50000000  1
  Sr  Sr1  1  0.66666667  0.33333333  0.00000000  1
  Al  Al2  1  0.33333333  0.66666667  0.50000000  1
  F  F3  1  0.05663308  0.39130851  0.70953357  1
  F  F4  1  0.60869149  0.66532457  0.70953357  1
  F  F5  1  0.33467543  0.94336692  0.70953357  1
  F  F6  1  0.60869149  0.94336692  0.29046643  1
  F  F7  1  0.05663308  0.66532457  0.29046643  1
  F  F8  1  0.33467543  0.39130851  0.29046643  1
