# generated using pymatgen
data_NaMgF3
_symmetry_space_group_name_H-M   'P 1'
_cell_length_a   5.56856689
_cell_length_b   5.56856689
_cell_length_c   5.56856689
_cell_angle_alpha   59.01757395
_cell_angle_beta   59.01757395
_cell_angle_gamma   59.01757395
_symmetry_Int_Tables_number   1
_chemical_formula_structural   NaMgF3
_chemical_formula_sum   'Na2 Mg2 F6'
_cell_volume   119.36397559
_cell_formula_units_Z   2
loop_
 _symmetry_equiv_pos_site_id
 _symmetry_equiv_pos_as_xyz
  1  'x, y, z'
loop_
 _atom_site_type_symbol
 _atom_site_label
 _atom_site_symmetry_multiplicity
 _atom_site_fract_x
 _atom_site_fract_y
 _atom_site_fract_z
 _atom_site_occupancy
  Na  Na0  1  0.26752478  0.26752478  0.26752478  1
  Na  Na1  1  0.76752478  0.76752478  0.76752478  1
  Mg  Mg2  1  0.99803426  0.99803426  0.99803426  1
  Mg  Mg3  1  0.49803426  0.49803426  0.49803426  1
  F  F4  1  0.16305740  0.73738379  0.32999877  1
  F  F5  1  0.32999877  0.16305740  0.73738379  1
  F  F6  1  0.73738379  0.32999877  0.16305740  1
  F  F7  1  0.23738379  0.66305740  0.82999877  1
  F  F8  1  0.66305740  0.82999877  0.23738379  1
  F  F9  1  0.82999877  0.23738379  0.66305740  1
