# generated using pymatgen
data_TeBr2
_symmetry_space_group_name_H-M   'P 1'
_cell_length_a   4.20688032
_cell_length_b   7.23473055
_cell_length_c   8.87307067
_cell_angle_alpha   66.94236997
_cell_angle_beta   83.67646003
_cell_angle_gamma   77.90870997
_symmetry_Int_Tables_number   1
_chemical_formula_structural   TeBr2
_chemical_formula_sum   'Te2 Br4'
_cell_volume   242.85197127
_cell_formula_units_Z   2
loop_
 _symmetry_equiv_pos_site_id
 _symmetry_equiv_pos_as_xyz
  1  'x, y, z'
loop_
 _atom_site_type_symbol
 _atom_site_label
 _atom_site_symmetry_multiplicity
 _atom_site_fract_x
 _atom_site_fract_y
 _atom_site_fract_z
 _atom_site_occupancy
  Te  Te0  1  0.07031000  0.20537000  0.67538000  1
  Te  Te1  1  0.71419000  0.87376000  0.76254000  1
  Br  Br2  1  0.63782000  0.74752000  0.07309000  1
  Br  Br3  1  0.03537000  0.23909000  0.95405000  1
  Br  Br4  1  0.54246000  0.52497000  0.55460000  1
  Br  Br5  1  0.95283000  0.07305000  0.42461000  1
