# generated using pymatgen
data_Li2SnPbSe4
_symmetry_space_group_name_H-M   'P 1'
_cell_length_a   6.57254046
_cell_length_b   6.57254046
_cell_length_c   6.52246431
_cell_angle_alpha   65.07504084
_cell_angle_beta   65.07504084
_cell_angle_gamma   98.46346163
_symmetry_Int_Tables_number   1
_chemical_formula_structural   Li2SnPbSe4
_chemical_formula_sum   'Li2 Sn1 Pb1 Se4'
_cell_volume   212.88241096
_cell_formula_units_Z   1
loop_
 _symmetry_equiv_pos_site_id
 _symmetry_equiv_pos_as_xyz
  1  'x, y, z'
loop_
 _atom_site_type_symbol
 _atom_site_label
 _atom_site_symmetry_multiplicity
 _atom_site_fract_x
 _atom_site_fract_y
 _atom_site_fract_z
 _atom_site_occupancy
  Li  Li0  1  0.24909650  0.75185632  0.50104692  1
  Li  Li1  1  0.75185632  0.24909650  0.50104692  1
  Sn  Sn2  1  0.50687090  0.50687090  0.98758949  1
  Pb  Pb3  1  0.95369926  0.95369926  0.05166274  1
  Se  Se4  1  0.88400702  0.88400702  0.55857200  1
  Se  Se5  1  0.12001984  0.54389680  0.00225656  1
  Se  Se6  1  0.54389680  0.12001984  0.00225656  1
  Se  Se7  1  0.49065655  0.49065655  0.39533670  1
