# generated using pymatgen
data_HgHOF
_symmetry_space_group_name_H-M   'P 1'
_cell_length_a   4.95680000
_cell_length_b   5.90420000
_cell_length_c   6.86300000
_cell_angle_alpha   90.00000000
_cell_angle_beta   90.00000000
_cell_angle_gamma   90.00000000
_symmetry_Int_Tables_number   1
_chemical_formula_structural   HgHOF
_chemical_formula_sum   'Hg4 H4 O4 F4'
_cell_volume   200.85213634
_cell_formula_units_Z   4
loop_
 _symmetry_equiv_pos_site_id
 _symmetry_equiv_pos_as_xyz
  1  'x, y, z'
loop_
 _atom_site_type_symbol
 _atom_site_label
 _atom_site_symmetry_multiplicity
 _atom_site_fract_x
 _atom_site_fract_y
 _atom_site_fract_z
 _atom_site_occupancy
  Hg  Hg0  1  0.25640000  0.49300000  0.11520000  1.0
  Hg  Hg1  1  0.75640000  0.00700000  0.88480000  1.0
  Hg  Hg2  1  0.74360000  0.99300000  0.38480000  1.0
  Hg  Hg3  1  0.24360000  0.50700000  0.61520000  1.0
  H  H4  1  0.64900000  0.52900000  0.36800000  1.0
  H  H5  1  0.14900000  0.97100000  0.63200000  1.0
  H  H6  1  0.35100000  0.02900000  0.13200000  1.0
  H  H7  1  0.85100000  0.47100000  0.86800000  1.0
  O  O8  1  0.46500000  0.60200000  0.36400000  1.0
  O  O9  1  0.03500000  0.39800000  0.86400000  1.0
  O  O10  1  0.53500000  0.10200000  0.13600000  1.0
  O  O11  1  0.96500000  0.89800000  0.63600000  1.0
  F  F12  1  0.40800000  0.10800000  0.63500000  1.0
  F  F13  1  0.59200000  0.60800000  0.86500000  1.0
  F  F14  1  0.90800000  0.39200000  0.36500000  1.0
  F  F15  1  0.09200000  0.89200000  0.13500000  1.0
