# generated using pymatgen
data_GaPSe4
_symmetry_space_group_name_H-M   'P 1'
_cell_length_a   6.16135156
_cell_length_b   6.16794866
_cell_length_c   10.78180411
_cell_angle_alpha   90.00000000
_cell_angle_beta   90.00000000
_cell_angle_gamma   90.00000000
_symmetry_Int_Tables_number   1
_chemical_formula_structural   GaPSe4
_chemical_formula_sum   'Ga2 P2 Se8'
_cell_volume   409.73982450
_cell_formula_units_Z   2
loop_
 _symmetry_equiv_pos_site_id
 _symmetry_equiv_pos_as_xyz
  1  'x, y, z'
loop_
 _atom_site_type_symbol
 _atom_site_label
 _atom_site_symmetry_multiplicity
 _atom_site_fract_x
 _atom_site_fract_y
 _atom_site_fract_z
 _atom_site_occupancy
  Ga  Ga0  1  0.00000000  0.00000000  0.50000000  1
  Ga  Ga1  1  0.00000000  0.50000000  0.00000000  1
  P  P2  1  0.50000000  0.00000000  0.50000000  1
  P  P3  1  0.00000000  0.00000000  0.00000000  1
  Se  Se4  1  0.72637303  0.20324592  0.61453894  1
  Se  Se5  1  0.27362697  0.20324592  0.38546106  1
  Se  Se6  1  0.72637303  0.79675408  0.38546106  1
  Se  Se7  1  0.27362697  0.79675408  0.61453894  1
  Se  Se8  1  0.20044052  0.77352997  0.11628942  1
  Se  Se9  1  0.79955948  0.77352997  0.88371058  1
  Se  Se10  1  0.20044052  0.22647003  0.88371058  1
  Se  Se11  1  0.79955948  0.22647003  0.11628942  1
