# generated using pymatgen
data_Cd7P10
_symmetry_space_group_name_H-M   'P 1'
_cell_length_a   4.69132200
_cell_length_b   11.88464377
_cell_length_c   14.15424422
_cell_angle_alpha   88.12561957
_cell_angle_beta   80.46085608
_cell_angle_gamma   78.61684902
_symmetry_Int_Tables_number   1
_chemical_formula_structural   Cd7P10
_chemical_formula_sum   'Cd14 P20'
_cell_volume   762.94458974
_cell_formula_units_Z   2
loop_
 _symmetry_equiv_pos_site_id
 _symmetry_equiv_pos_as_xyz
  1  'x, y, z'
loop_
 _atom_site_type_symbol
 _atom_site_label
 _atom_site_symmetry_multiplicity
 _atom_site_fract_x
 _atom_site_fract_y
 _atom_site_fract_z
 _atom_site_occupancy
  Cd  Cd0  1  0.03198400  0.49456700  0.90062600  1
  Cd  Cd1  1  0.42018400  0.50366600  0.09410800  1
  Cd  Cd2  1  0.26624700  0.00370500  0.40603300  1
  Cd  Cd3  1  0.68712300  0.99327500  0.59640600  1
  Cd  Cd4  1  0.72930400  0.24070200  0.83588800  1
  Cd  Cd5  1  0.81676700  0.75793200  0.16506400  1
  Cd  Cd6  1  0.72074700  0.26133100  0.33279600  1
  Cd  Cd7  1  0.32847100  0.73537700  0.66197600  1
  Cd  Cd8  1  0.25579700  0.23492400  0.57734000  1
  Cd  Cd9  1  0.05030100  0.76737400  0.42705700  1
  Cd  Cd10  1  0.23618500  0.26123500  0.07655400  1
  Cd  Cd11  1  0.56356600  0.73443600  0.92653200  1
  Cd  Cd12  1  0.75509500  0.49983800  0.49852200  1
  Cd  Cd13  1  0.99719000  0.99613000  0.00147300  1
  P  P14  1  0.37452700  0.08601700  0.86996300  1
  P  P15  1  0.32854200  0.91540100  0.12585000  1
  P  P16  1  0.20919500  0.41307600  0.37232200  1
  P  P17  1  0.99271500  0.58261400  0.63000500  1
  P  P18  1  0.19055800  0.08940100  0.73640400  1
  P  P19  1  0.01466000  0.91453900  0.25735900  1
  P  P20  1  0.01865400  0.41068500  0.24119300  1
  P  P21  1  0.67119900  0.58550100  0.75993000  1
  P  P22  1  0.78558600  0.33086800  0.99571600  1
  P  P23  1  0.10531100  0.66237300  0.00555100  1
  P  P24  1  0.87143100  0.16421800  0.49803100  1
  P  P25  1  0.51592200  0.83489100  0.50622700  1
  P  P26  1  0.47353200  0.43221800  0.77125800  1
  P  P27  1  0.67269700  0.57158100  0.23215300  1
  P  P28  1  0.72169700  0.92768700  0.86841100  1
  P  P29  1  0.53512500  0.07020600  0.12922000  1
  P  P30  1  0.40351900  0.57010200  0.37433300  1
  P  P31  1  0.34967800  0.43145600  0.62769100  1
  P  P32  1  0.99420800  0.93614800  0.73066100  1
  P  P33  1  0.65191100  0.07023100  0.26934100  1
