# generated using pymatgen
data_PF5
_symmetry_space_group_name_H-M   'P 1'
_cell_length_a   5.13024716
_cell_length_b   5.21659244
_cell_length_c   7.94923090
_cell_angle_alpha   83.78475641
_cell_angle_beta   106.61892370
_cell_angle_gamma   113.34531479
_symmetry_Int_Tables_number   1
_chemical_formula_structural   PF5
_chemical_formula_sum   'P2 F10'
_cell_volume   187.16202881
_cell_formula_units_Z   2
loop_
 _symmetry_equiv_pos_site_id
 _symmetry_equiv_pos_as_xyz
  1  'x, y, z'
loop_
 _atom_site_type_symbol
 _atom_site_label
 _atom_site_symmetry_multiplicity
 _atom_site_fract_x
 _atom_site_fract_y
 _atom_site_fract_z
 _atom_site_occupancy
  P  P0  1  0.14932998  0.00900646  0.03788752  1
  P  P1  1  0.43913600  0.57902303  0.54822043  1
  F  F2  1  0.45808665  0.66083459  0.73599360  1
  F  F3  1  0.41697698  0.22816105  0.16733832  1
  F  F4  1  0.62168729  0.38612017  0.63091905  1
  F  F5  1  0.12921523  0.04025078  0.83729328  1
  F  F6  1  0.33493064  0.81645012  0.06099634  1
  F  F7  1  0.68511797  0.75609751  0.45515557  1
  F  F8  1  0.96452089  0.20104326  0.02153723  1
  F  F9  1  0.16774559  0.31878792  0.45809402  1
  F  F10  1  0.90116964  0.76054149  0.09871225  1
  F  F11  1  0.26383613  0.77708460  0.46197339  1
