# generated using pymatgen
data_GaTeCl
_symmetry_space_group_name_H-M   'P 1'
_cell_length_a   4.15909787
_cell_length_b   4.16035311
_cell_length_c   7.15495552
_cell_angle_alpha   90.05832925
_cell_angle_beta   106.67080017
_cell_angle_gamma   119.98957575
_symmetry_Int_Tables_number   1
_chemical_formula_structural   GaTeCl
_chemical_formula_sum   'Ga1 Te1 Cl1'
_cell_volume   101.15428638
_cell_formula_units_Z   1
loop_
 _symmetry_equiv_pos_site_id
 _symmetry_equiv_pos_as_xyz
  1  'x, y, z'
loop_
 _atom_site_type_symbol
 _atom_site_label
 _atom_site_symmetry_multiplicity
 _atom_site_fract_x
 _atom_site_fract_y
 _atom_site_fract_z
 _atom_site_occupancy
  Ga  Ga0  1  0.99235386  0.20377924  0.22880374  1
  Te  Te1  1  0.20780549  0.81127156  0.04991942  1
  Cl  Cl2  1  0.20342064  0.31092220  0.54931283  1
