# generated using pymatgen
data_TlH6IrPb
_symmetry_space_group_name_H-M   'P 1'
_cell_length_a   5.01414347
_cell_length_b   5.01460227
_cell_length_c   5.33139996
_cell_angle_alpha   90.01839476
_cell_angle_beta   90.02663270
_cell_angle_gamma   119.98980977
_symmetry_Int_Tables_number   1
_chemical_formula_structural   TlH6IrPb
_chemical_formula_sum   'Tl1 H6 Ir1 Pb1'
_cell_volume   116.10464532
_cell_formula_units_Z   1
loop_
 _symmetry_equiv_pos_site_id
 _symmetry_equiv_pos_as_xyz
  1  'x, y, z'
loop_
 _atom_site_type_symbol
 _atom_site_label
 _atom_site_symmetry_multiplicity
 _atom_site_fract_x
 _atom_site_fract_y
 _atom_site_fract_z
 _atom_site_occupancy
  Tl  Tl0  1  0.00152381  0.00232342  0.11750177  1
  H  H1  1  0.82488714  0.17253679  0.64516346  1
  H  H2  1  0.51549595  0.03003644  0.26776879  1
  H  H3  1  0.51538076  0.48890693  0.27257168  1
  H  H4  1  0.97439035  0.48893101  0.27414261  1
  H  H5  1  0.82290311  0.64616627  0.65097264  1
  H  H6  1  0.34592047  0.17184069  0.64335284  1
  Ir  Ir7  1  0.66581732  0.33215370  0.46745347  1
  Pb  Pb8  1  0.33391761  0.66715484  0.66116175  1
