# generated using pymatgen
data_Be2ZnTe3
_symmetry_space_group_name_H-M   'P 1'
_cell_length_a   7.15079449
_cell_length_b   7.15079449
_cell_length_c   7.12874104
_cell_angle_alpha   80.55143102
_cell_angle_beta   80.55143102
_cell_angle_gamma   120.10963250
_symmetry_Int_Tables_number   1
_chemical_formula_structural   Be2ZnTe3
_chemical_formula_sum   'Be4 Zn2 Te6'
_cell_volume   297.79395262
_cell_formula_units_Z   2
loop_
 _symmetry_equiv_pos_site_id
 _symmetry_equiv_pos_as_xyz
  1  'x, y, z'
loop_
 _atom_site_type_symbol
 _atom_site_label
 _atom_site_symmetry_multiplicity
 _atom_site_fract_x
 _atom_site_fract_y
 _atom_site_fract_z
 _atom_site_occupancy
  Be  Be0  1  0.42842693  0.59475089  0.99249984  1
  Be  Be1  1  0.26682423  0.75887552  0.49183423  1
  Be  Be2  1  0.59475089  0.42842693  0.49249984  1
  Be  Be3  1  0.75887552  0.26682423  0.99183423  1
  Zn  Zn4  1  0.92481598  0.09719710  0.49357336  1
  Zn  Zn5  1  0.09719710  0.92481598  0.99357336  1
  Te  Te6  1  0.24353525  0.05543546  0.60187843  1
  Te  Te7  1  0.05543546  0.24353525  0.10187843  1
  Te  Te8  1  0.40633608  0.88400486  0.12354123  1
  Te  Te9  1  0.88400486  0.40633608  0.62354123  1
  Te  Te10  1  0.69929282  0.53553490  0.12539591  1
  Te  Te11  1  0.53553490  0.69929282  0.62539591  1
