# generated using pymatgen
data_Al4SnSe7
_symmetry_space_group_name_H-M   'P 1'
_cell_length_a   6.34701644
_cell_length_b   6.77147945
_cell_length_c   15.67962798
_cell_angle_alpha   90.00000000
_cell_angle_beta   90.00000000
_cell_angle_gamma   90.00000000
_symmetry_Int_Tables_number   1
_chemical_formula_structural   Al4SnSe7
_chemical_formula_sum   'Al8 Sn2 Se14'
_cell_volume   673.88989210
_cell_formula_units_Z   2
loop_
 _symmetry_equiv_pos_site_id
 _symmetry_equiv_pos_as_xyz
  1  'x, y, z'
loop_
 _atom_site_type_symbol
 _atom_site_label
 _atom_site_symmetry_multiplicity
 _atom_site_fract_x
 _atom_site_fract_y
 _atom_site_fract_z
 _atom_site_occupancy
  Al  Al0  1  0.58553720  0.66007925  0.87568766  1
  Al  Al1  1  0.07664155  0.81976288  0.25389627  1
  Al  Al2  1  0.57664155  0.18023712  0.24610373  1
  Al  Al3  1  0.08553720  0.33992075  0.62431234  1
  Al  Al4  1  0.08553720  0.33992075  0.37568766  1
  Al  Al5  1  0.58553720  0.66007925  0.12431234  1
  Al  Al6  1  0.07664155  0.81976288  0.74610373  1
  Al  Al7  1  0.57664155  0.18023712  0.75389627  1
  Sn  Sn8  1  0.54730565  0.03589285  0.50000000  1
  Sn  Sn9  1  0.04730565  0.96410715  0.00000000  1
  Se  Se10  1  0.97164871  0.66725193  0.12037789  1
  Se  Se11  1  0.47164871  0.33274807  0.37962211  1
  Se  Se12  1  0.45988928  0.33288582  0.87967793  1
  Se  Se13  1  0.95988928  0.66711418  0.62032207  1
  Se  Se14  1  0.95988928  0.66711418  0.37967793  1
  Se  Se15  1  0.45988928  0.33288582  0.12032207  1
  Se  Se16  1  0.46568405  0.83340027  0.74668033  1
  Se  Se17  1  0.96568405  0.16659973  0.75331967  1
  Se  Se18  1  0.96568405  0.16659973  0.24668033  1
  Se  Se19  1  0.46568405  0.83340027  0.25331967  1
  Se  Se20  1  0.48872178  0.85545876  0.00000000  1
  Se  Se21  1  0.98872178  0.14454124  0.50000000  1
  Se  Se22  1  0.97164871  0.66725193  0.87962211  1
  Se  Se23  1  0.47164871  0.33274807  0.62037789  1
