# generated using pymatgen
data_GaTeCl
_symmetry_space_group_name_H-M   'P 1'
_cell_length_a   6.85294498
_cell_length_b   7.16603581
_cell_length_c   20.28052511
_cell_angle_alpha   90.00000000
_cell_angle_beta   90.00000000
_cell_angle_gamma   90.00000000
_symmetry_Int_Tables_number   1
_chemical_formula_structural   GaTeCl
_chemical_formula_sum   'Ga4 Te4 Cl4'
_cell_volume   995.94513571
_cell_formula_units_Z   4
loop_
 _symmetry_equiv_pos_site_id
 _symmetry_equiv_pos_as_xyz
  1  'x, y, z'
loop_
 _atom_site_type_symbol
 _atom_site_label
 _atom_site_symmetry_multiplicity
 _atom_site_fract_x
 _atom_site_fract_y
 _atom_site_fract_z
 _atom_site_occupancy
  Ga  Ga0  1  0.21567120  0.59085369  0.45359977  1
  Ga  Ga1  1  0.71567120  0.40914631  0.54640023  1
  Ga  Ga2  1  0.21567120  0.09085369  0.54640023  1
  Ga  Ga3  1  0.71567120  0.90914631  0.45359977  1
  Te  Te4  1  0.10120995  0.94280413  0.43187884  1
  Te  Te5  1  0.60120995  0.05719587  0.56812116  1
  Te  Te6  1  0.10120995  0.44280413  0.56812116  1
  Te  Te7  1  0.60120995  0.55719587  0.43187884  1
  Cl  Cl8  1  0.08798885  0.43702841  0.36981291  1
  Cl  Cl9  1  0.58798885  0.56297159  0.63018709  1
  Cl  Cl10  1  0.08798885  0.93702841  0.63018709  1
  Cl  Cl11  1  0.58798885  0.06297159  0.36981291  1
