# generated using pymatgen
data_LiCdAsS4
_symmetry_space_group_name_H-M   'P 1'
_cell_length_a   6.06919848
_cell_length_b   6.06973405
_cell_length_c   6.44703924
_cell_angle_alpha   118.08293198
_cell_angle_beta   118.07575021
_cell_angle_gamma   89.99744277
_symmetry_Int_Tables_number   1
_chemical_formula_structural   LiCdAsS4
_chemical_formula_sum   'Li1 Cd1 As1 S4'
_cell_volume   177.23748371
_cell_formula_units_Z   1
loop_
 _symmetry_equiv_pos_site_id
 _symmetry_equiv_pos_as_xyz
  1  'x, y, z'
loop_
 _atom_site_type_symbol
 _atom_site_label
 _atom_site_symmetry_multiplicity
 _atom_site_fract_x
 _atom_site_fract_y
 _atom_site_fract_z
 _atom_site_occupancy
  Li  Li0  1  0.50016208  0.50017100  0.00012261  1
  Cd  Cd1  1  0.99993955  0.99997485  0.99993731  1
  As  As2  1  0.74996096  0.24994426  0.49998609  1
  S  S3  1  0.42084801  0.36220634  0.26878782  1
  S  S4  1  0.63761124  0.15193148  0.73108652  1
  S  S5  1  0.09337834  0.57905080  0.73113007  1
  S  S6  1  0.84807683  0.90657825  0.26891757  1
