# generated using pymatgen
data_GaSiAgS4
_symmetry_space_group_name_H-M   'P 1'
_cell_length_a   6.28603422
_cell_length_b   6.28603422
_cell_length_c   6.28603422
_cell_angle_alpha   125.44560087
_cell_angle_beta   125.44560087
_cell_angle_gamma   80.80126030
_symmetry_Int_Tables_number   1
_chemical_formula_structural   GaSiAgS4
_chemical_formula_sum   'Ga1 Si1 Ag1 S4'
_cell_volume   158.91681248
_cell_formula_units_Z   1
loop_
 _symmetry_equiv_pos_site_id
 _symmetry_equiv_pos_as_xyz
  1  'x, y, z'
loop_
 _atom_site_type_symbol
 _atom_site_label
 _atom_site_symmetry_multiplicity
 _atom_site_fract_x
 _atom_site_fract_y
 _atom_site_fract_z
 _atom_site_occupancy
  Ga  Ga0  1  0.50000000  0.50000000  -0.00000000  1
  Si  Si1  1  0.25000000  0.75000000  0.50000000  1
  Ag  Ag2  1  0.00000000  0.00000000  0.00000000  1
  S  S3  1  0.57136888  0.10761049  0.95657741  1
  S  S4  1  0.89238951  0.84896692  0.46375839  1
  S  S5  1  0.15103308  0.61479147  0.04342259  1
  S  S6  1  0.38520853  0.42863112  0.53624161  1
