# generated using pymatgen
data_Na2MgSiSe4
_symmetry_space_group_name_H-M   'P 1'
_cell_length_a   6.68991546
_cell_length_b   6.69376407
_cell_length_c   6.86416838
_cell_angle_alpha   119.13834449
_cell_angle_beta   119.13187768
_cell_angle_gamma   90.06604738
_symmetry_Int_Tables_number   1
_chemical_formula_structural   Na2MgSiSe4
_chemical_formula_sum   'Na2 Mg1 Si1 Se4'
_cell_volume   222.79729428
_cell_formula_units_Z   1
loop_
 _symmetry_equiv_pos_site_id
 _symmetry_equiv_pos_as_xyz
  1  'x, y, z'
loop_
 _atom_site_type_symbol
 _atom_site_label
 _atom_site_symmetry_multiplicity
 _atom_site_fract_x
 _atom_site_fract_y
 _atom_site_fract_z
 _atom_site_occupancy
  Na  Na0  1  0.98572816  0.48579890  0.97158828  1
  Na  Na1  1  0.23588707  0.23598869  0.47186442  1
  Mg  Mg2  1  0.48644039  0.98652658  0.97292417  1
  Si  Si3  1  0.73593256  0.73587793  0.47181576  1
  Se  Se4  1  0.08017880  0.67014114  0.71816013  1
  Se  Se5  1  0.80165774  0.83330763  0.22485549  1
  Se  Se6  1  0.42322212  0.39151199  0.22480820  1
  Se  Se7  1  0.63800515  0.04790014  0.71808555  1
