# generated using pymatgen
data_ScHICl
_symmetry_space_group_name_H-M   'P 1'
_cell_length_a   3.67019805
_cell_length_b   3.67019805
_cell_length_c   7.82978379
_cell_angle_alpha   76.39317755
_cell_angle_beta   76.39317755
_cell_angle_gamma   60.00589586
_symmetry_Int_Tables_number   1
_chemical_formula_structural   ScHICl
_chemical_formula_sum   'Sc1 H1 I1 Cl1'
_cell_volume   87.90988916
_cell_formula_units_Z   1
loop_
 _symmetry_equiv_pos_site_id
 _symmetry_equiv_pos_as_xyz
  1  'x, y, z'
loop_
 _atom_site_type_symbol
 _atom_site_label
 _atom_site_symmetry_multiplicity
 _atom_site_fract_x
 _atom_site_fract_y
 _atom_site_fract_z
 _atom_site_occupancy
  Sc  Sc0  1  0.72136533  0.72136533  0.10663438  1
  H  H1  1  0.38444729  0.38444729  0.11767285  1
  I  I2  1  0.96255824  0.96255824  0.38210486  1
  Cl  Cl3  1  0.12720912  0.12720912  0.89012791  1
