# generated using pymatgen
data_TlHIBr
_symmetry_space_group_name_H-M   'P 1'
_cell_length_a   5.30071123
_cell_length_b   5.30071123
_cell_length_c   7.68059286
_cell_angle_alpha   70.03879634
_cell_angle_beta   70.03879634
_cell_angle_gamma   59.71488932
_symmetry_Int_Tables_number   1
_chemical_formula_structural   TlHIBr
_chemical_formula_sum   'Tl1 H1 I1 Br1'
_cell_volume   171.30932501
_cell_formula_units_Z   1
loop_
 _symmetry_equiv_pos_site_id
 _symmetry_equiv_pos_as_xyz
  1  'x, y, z'
loop_
 _atom_site_type_symbol
 _atom_site_label
 _atom_site_symmetry_multiplicity
 _atom_site_fract_x
 _atom_site_fract_y
 _atom_site_fract_z
 _atom_site_occupancy
  Tl  Tl0  1  0.15176341  0.15176341  0.43714458  1
  H  H1  1  0.64176242  0.64176242  0.96594434  1
  I  I2  1  0.74452985  0.74452985  0.66482407  1
  Br  Br3  1  0.56603430  0.56603430  0.18766702  1
