# generated using pymatgen
data_Li2InCl3
_symmetry_space_group_name_H-M   'P 1'
_cell_length_a   3.85335862
_cell_length_b   3.85335862
_cell_length_c   9.57853367
_cell_angle_alpha   90.00000000
_cell_angle_beta   90.00000000
_cell_angle_gamma   90.00000000
_symmetry_Int_Tables_number   1
_chemical_formula_structural   Li2InCl3
_chemical_formula_sum   'Li2 In1 Cl3'
_cell_volume   142.22563742
_cell_formula_units_Z   1
loop_
 _symmetry_equiv_pos_site_id
 _symmetry_equiv_pos_as_xyz
  1  'x, y, z'
loop_
 _atom_site_type_symbol
 _atom_site_label
 _atom_site_symmetry_multiplicity
 _atom_site_fract_x
 _atom_site_fract_y
 _atom_site_fract_z
 _atom_site_occupancy
  Li  Li0  1  0.50000000  0.00000000  0.14646564  1
  Li  Li1  1  0.00000000  0.50000000  0.85353436  1
  In  In2  1  0.50000000  0.50000000  0.50000000  1
  Cl  Cl3  1  0.00000000  0.00000000  0.29854470  1
  Cl  Cl4  1  0.00000000  0.00000000  0.70145530  1
  Cl  Cl5  1  0.50000000  0.50000000  0.00000000  1
