# generated using pymatgen
data_TiO2
_symmetry_space_group_name_H-M   'P 1'
_cell_length_a   5.75686461
_cell_length_b   5.75686461
_cell_length_c   6.33012843
_cell_angle_alpha   90.00000000
_cell_angle_beta   90.00000000
_cell_angle_gamma   120.00000000
_symmetry_Int_Tables_number   1
_chemical_formula_structural   TiO2
_chemical_formula_sum   'Ti3 O6'
_cell_volume   181.68337325
_cell_formula_units_Z   3
loop_
 _symmetry_equiv_pos_site_id
 _symmetry_equiv_pos_as_xyz
  1  'x, y, z'
loop_
 _atom_site_type_symbol
 _atom_site_label
 _atom_site_symmetry_multiplicity
 _atom_site_fract_x
 _atom_site_fract_y
 _atom_site_fract_z
 _atom_site_occupancy
  Ti  Ti0  1  0.50348944  0.50348944  0.00000000  1
  Ti  Ti1  1  0.00000000  0.49651056  0.66666667  1
  Ti  Ti2  1  0.49651056  0.00000000  0.33333333  1
  O  O3  1  0.42526132  0.21925310  0.17172523  1
  O  O4  1  0.20600822  0.78074690  0.49494144  1
  O  O5  1  0.79399178  0.57473868  0.83839190  1
  O  O6  1  0.21925310  0.42526132  0.82827477  1
  O  O7  1  0.78074690  0.20600822  0.50505856  1
  O  O8  1  0.57473868  0.79399178  0.16160810  1
