# generated using pymatgen
data_Na2TiZnO4
_symmetry_space_group_name_H-M   'P 1'
_cell_length_a   5.62647784
_cell_length_b   5.62647784
_cell_length_c   5.62647784
_cell_angle_alpha   125.58837090
_cell_angle_beta   125.58837090
_cell_angle_gamma   80.56574006
_symmetry_Int_Tables_number   1
_chemical_formula_structural   Na2TiZnO4
_chemical_formula_sum   'Na2 Ti1 Zn1 O4'
_cell_volume   113.60713832
_cell_formula_units_Z   1
loop_
 _symmetry_equiv_pos_site_id
 _symmetry_equiv_pos_as_xyz
  1  'x, y, z'
loop_
 _atom_site_type_symbol
 _atom_site_label
 _atom_site_symmetry_multiplicity
 _atom_site_fract_x
 _atom_site_fract_y
 _atom_site_fract_z
 _atom_site_occupancy
  Na  Na0  1  0.25000000  0.75000000  0.50000000  1
  Na  Na1  1  0.00000000  0.00000000  0.00000000  1
  Ti  Ti2  1  0.75000000  0.25000000  0.50000000  1
  Zn  Zn3  1  0.50000000  0.50000000  -0.00000000  1
  O  O4  1  0.81022505  0.36589529  0.91569734  1
  O  O5  1  0.10547229  0.18977495  0.55567024  1
  O  O6  1  0.63410471  0.54980205  0.44432976  1
  O  O7  1  0.45019795  0.89452771  0.08430266  1
