# generated using pymatgen
data_NaLi2AsO4
_symmetry_space_group_name_H-M   'P 1'
_cell_length_a   7.02900000
_cell_length_b   5.20500000
_cell_length_c   5.05400000
_cell_angle_alpha   90.00000000
_cell_angle_beta   90.00000000
_cell_angle_gamma   90.00000000
_symmetry_Int_Tables_number   1
_chemical_formula_structural   NaLi2AsO4
_chemical_formula_sum   'Na2 Li4 As2 O8'
_cell_volume   184.90536603
_cell_formula_units_Z   2
loop_
 _symmetry_equiv_pos_site_id
 _symmetry_equiv_pos_as_xyz
  1  'x, y, z'
loop_
 _atom_site_type_symbol
 _atom_site_label
 _atom_site_symmetry_multiplicity
 _atom_site_fract_x
 _atom_site_fract_y
 _atom_site_fract_z
 _atom_site_occupancy
  Na  Na0  1  0.00000000  0.78190000  0.51900000  1.0
  Na  Na1  1  0.50000000  0.21810000  0.01900000  1.0
  Li  Li2  1  0.25170000  0.31760000  0.51530000  1.0
  Li  Li3  1  0.75170000  0.68240000  0.01530000  1.0
  Li  Li4  1  0.74830000  0.31760000  0.51530000  1.0
  Li  Li5  1  0.24830000  0.68240000  0.01530000  1.0
  As  As6  1  0.50000000  0.80890000  0.50000000  1.0
  As  As7  1  0.00000000  0.19110000  0.00000000  1.0
  O  O8  1  0.00000000  0.87090000  0.05980000  1.0
  O  O9  1  0.00000000  0.23240000  0.66370000  1.0
  O  O10  1  0.50000000  0.12910000  0.55980000  1.0
  O  O11  1  0.50000000  0.76760000  0.16370000  1.0
  O  O12  1  0.19660000  0.32710000  0.12350000  1.0
  O  O13  1  0.30340000  0.67290000  0.62350000  1.0
  O  O14  1  0.69660000  0.67290000  0.62350000  1.0
  O  O15  1  0.80340000  0.32710000  0.12350000  1.0
