# generated using pymatgen
data_Li2TlAgBr4
_symmetry_space_group_name_H-M   'P 1'
_cell_length_a   7.73626629
_cell_length_b   7.73626629
_cell_length_c   7.73626629
_cell_angle_alpha   130.98109770
_cell_angle_beta   130.98029556
_cell_angle_gamma   71.84374984
_symmetry_Int_Tables_number   1
_chemical_formula_structural   Li2TlAgBr4
_chemical_formula_sum   'Li2 Tl1 Ag1 Br4'
_cell_volume   258.11687695
_cell_formula_units_Z   1
loop_
 _symmetry_equiv_pos_site_id
 _symmetry_equiv_pos_as_xyz
  1  'x, y, z'
loop_
 _atom_site_type_symbol
 _atom_site_label
 _atom_site_symmetry_multiplicity
 _atom_site_fract_x
 _atom_site_fract_y
 _atom_site_fract_z
 _atom_site_occupancy
  Li  Li0  1  0.75005197  0.25005197  0.50000000  1
  Li  Li1  1  0.24994803  0.74994803  0.50000000  1
  Tl  Tl2  1  0.00000000  0.00000000  0.00000000  1
  Ag  Ag3  1  0.50000000  0.50000000  -0.00000000  1
  Br  Br4  1  0.13103611  0.56715259  0.00007470  1
  Br  Br5  1  0.43292211  0.43284741  0.56388352  1
  Br  Br6  1  0.56707789  0.13096141  0.99992530  1
  Br  Br7  1  0.86896389  0.86903859  0.43611648  1
