# generated using pymatgen
data_Na2NbTlO4
_symmetry_space_group_name_H-M   'P 1'
_cell_length_a   5.78018270
_cell_length_b   5.78018270
_cell_length_c   5.77896685
_cell_angle_alpha   61.70821785
_cell_angle_beta   61.70821785
_cell_angle_gamma   92.99612637
_symmetry_Int_Tables_number   1
_chemical_formula_structural   Na2NbTlO4
_chemical_formula_sum   'Na2 Nb1 Tl1 O4'
_cell_volume   139.83251661
_cell_formula_units_Z   1
loop_
 _symmetry_equiv_pos_site_id
 _symmetry_equiv_pos_as_xyz
  1  'x, y, z'
loop_
 _atom_site_type_symbol
 _atom_site_label
 _atom_site_symmetry_multiplicity
 _atom_site_fract_x
 _atom_site_fract_y
 _atom_site_fract_z
 _atom_site_occupancy
  Na  Na0  1  0.74990630  0.24989234  0.49994431  1
  Na  Na1  1  0.24989234  0.74990630  0.49994431  1
  Nb  Nb2  1  0.49999759  0.49999759  0.00003790  1
  Tl  Tl3  1  0.99965824  0.99965824  0.99986669  1
  O  O4  1  0.81992757  0.81992757  0.63035418  1
  O  O5  1  0.55016025  0.18029151  0.99992082  1
  O  O6  1  0.18029151  0.55016025  0.99992082  1
  O  O7  1  0.44987521  0.44987521  0.37001195  1
