# generated using pymatgen
data_LiSc2SbO6
_symmetry_space_group_name_H-M   'P 1'
_cell_length_a   5.74057056
_cell_length_b   5.74057056
_cell_length_c   5.74057056
_cell_angle_alpha   55.38704990
_cell_angle_beta   55.38704990
_cell_angle_gamma   55.38704990
_symmetry_Int_Tables_number   1
_chemical_formula_structural   LiSc2SbO6
_chemical_formula_sum   'Li1 Sc2 Sb1 O6'
_cell_volume   119.43336443
_cell_formula_units_Z   1
loop_
 _symmetry_equiv_pos_site_id
 _symmetry_equiv_pos_as_xyz
  1  'x, y, z'
loop_
 _atom_site_type_symbol
 _atom_site_label
 _atom_site_symmetry_multiplicity
 _atom_site_fract_x
 _atom_site_fract_y
 _atom_site_fract_z
 _atom_site_occupancy
  Li  Li0  1  0.79106801  0.79106801  0.79106801  1
  Sc  Sc1  1  0.52383877  0.52383877  0.52383877  1
  Sc  Sc2  1  0.01893158  0.01893158  0.01893158  1
  Sb  Sb3  1  0.32105198  0.32105198  0.32105198  1
  O  O4  1  0.93726945  0.59222275  0.23637293  1
  O  O5  1  0.59222275  0.23637293  0.93726945  1
  O  O6  1  0.23637293  0.93726945  0.59222275  1
  O  O7  1  0.13169294  0.40070904  0.70912566  1
  O  O8  1  0.40070904  0.70912566  0.13169294  1
  O  O9  1  0.70912566  0.13169294  0.40070904  1
