# generated using pymatgen
data_SnH2F2
_symmetry_space_group_name_H-M   'P 1'
_cell_length_a   5.32890953
_cell_length_b   5.33146116
_cell_length_c   6.16328314
_cell_angle_alpha   90.05317955
_cell_angle_beta   106.00677077
_cell_angle_gamma   90.00377043
_symmetry_Int_Tables_number   1
_chemical_formula_structural   SnH2F2
_chemical_formula_sum   'Sn2 H4 F4'
_cell_volume   168.31523330
_cell_formula_units_Z   2
loop_
 _symmetry_equiv_pos_site_id
 _symmetry_equiv_pos_as_xyz
  1  'x, y, z'
loop_
 _atom_site_type_symbol
 _atom_site_label
 _atom_site_symmetry_multiplicity
 _atom_site_fract_x
 _atom_site_fract_y
 _atom_site_fract_z
 _atom_site_occupancy
  Sn  Sn0  1  0.19308729  0.13371978  0.84030871  1
  Sn  Sn1  1  0.80677614  0.63406162  0.15965219  1
  H  H2  1  0.57372306  0.19799592  0.43557778  1
  H  H3  1  0.60278388  0.28311482  0.53680770  1
  H  H4  1  0.39733208  0.78304995  0.46337041  1
  H  H5  1  0.42650448  0.69781449  0.56436314  1
  F  F6  1  0.92771272  0.81051797  0.89909010  1
  F  F7  1  0.48043696  0.94020360  0.08655371  1
  F  F8  1  0.51945056  0.44003631  0.91339482  1
  F  F9  1  0.07218283  0.31076853  0.10087345  1
