# generated using pymatgen
data_LiGeCl3
_symmetry_space_group_name_H-M   'P 1'
_cell_length_a   7.47042125
_cell_length_b   7.47042125
_cell_length_c   7.47042125
_cell_angle_alpha   54.42885589
_cell_angle_beta   54.42885589
_cell_angle_gamma   54.42885589
_symmetry_Int_Tables_number   1
_chemical_formula_structural   LiGeCl3
_chemical_formula_sum   'Li2 Ge2 Cl6'
_cell_volume   256.49584570
_cell_formula_units_Z   2
loop_
 _symmetry_equiv_pos_site_id
 _symmetry_equiv_pos_as_xyz
  1  'x, y, z'
loop_
 _atom_site_type_symbol
 _atom_site_label
 _atom_site_symmetry_multiplicity
 _atom_site_fract_x
 _atom_site_fract_y
 _atom_site_fract_z
 _atom_site_occupancy
  Li  Li0  1  0.30967300  0.30967300  0.30967300  1
  Li  Li1  1  0.80967300  0.80967300  0.80967300  1
  Ge  Ge2  1  0.98508440  0.98508440  0.98508440  1
  Ge  Ge3  1  0.48508440  0.48508440  0.48508440  1
  Cl  Cl4  1  0.97318007  0.16347563  0.59716600  1
  Cl  Cl5  1  0.59716600  0.97318007  0.16347563  1
  Cl  Cl6  1  0.16347563  0.59716600  0.97318007  1
  Cl  Cl7  1  0.47318007  0.09716600  0.66347563  1
  Cl  Cl8  1  0.09716600  0.66347563  0.47318007  1
  Cl  Cl9  1  0.66347563  0.47318007  0.09716600  1
