# generated using pymatgen
data_ZnBrCl
_symmetry_space_group_name_H-M   'P 1'
_cell_length_a   3.87887842
_cell_length_b   6.29225079
_cell_length_c   7.87274559
_cell_angle_alpha   90.00881777
_cell_angle_beta   103.27484137
_cell_angle_gamma   90.02173873
_symmetry_Int_Tables_number   1
_chemical_formula_structural   ZnBrCl
_chemical_formula_sum   'Zn2 Br2 Cl2'
_cell_volume   187.01484021
_cell_formula_units_Z   2
loop_
 _symmetry_equiv_pos_site_id
 _symmetry_equiv_pos_as_xyz
  1  'x, y, z'
loop_
 _atom_site_type_symbol
 _atom_site_label
 _atom_site_symmetry_multiplicity
 _atom_site_fract_x
 _atom_site_fract_y
 _atom_site_fract_z
 _atom_site_occupancy
  Zn  Zn0  1  0.07325678  0.16499803  0.15198024  1
  Zn  Zn1  1  0.93228723  0.66520536  0.85210873  1
  Br  Br2  1  0.65310426  0.05638130  0.32374417  1
  Br  Br3  1  0.35224498  0.55667992  0.68009607  1
  Cl  Cl4  1  0.06231157  0.53299391  0.13138868  1
  Cl  Cl5  1  0.94368217  0.03317347  0.87253310  1
