# generated using pymatgen
data_H3I2Br
_symmetry_space_group_name_H-M   'P 1'
_cell_length_a   12.48709085
_cell_length_b   12.48709085
_cell_length_c   5.74752658
_cell_angle_alpha   90.00000000
_cell_angle_beta   90.00000000
_cell_angle_gamma   152.18663679
_symmetry_Int_Tables_number   1
_chemical_formula_structural   H3I2Br
_chemical_formula_sum   'H6 I4 Br2'
_cell_volume   418.15923713
_cell_formula_units_Z   2
loop_
 _symmetry_equiv_pos_site_id
 _symmetry_equiv_pos_as_xyz
  1  'x, y, z'
loop_
 _atom_site_type_symbol
 _atom_site_label
 _atom_site_symmetry_multiplicity
 _atom_site_fract_x
 _atom_site_fract_y
 _atom_site_fract_z
 _atom_site_occupancy
  H  H0  1  0.61055791  0.28233374  0.16091476  1
  H  H1  1  0.71766626  0.38944209  0.66091476  1
  H  H2  1  0.28233374  0.61055791  0.16091476  1
  H  H3  1  0.38944209  0.71766626  0.66091476  1
  H  H4  1  0.05075271  0.05075271  0.25963576  1
  H  H5  1  0.94924729  0.94924729  0.75963576  1
  I  I6  1  0.92095083  0.59293918  0.46371941  1
  I  I7  1  0.40706082  0.07904917  0.96371941  1
  I  I8  1  0.59293918  0.92095083  0.46371941  1
  I  I9  1  0.07904917  0.40706082  0.96371941  1
  Br  Br10  1  0.78633468  0.78633468  0.94910591  1
  Br  Br11  1  0.21366532  0.21366532  0.44910591  1
