# generated using pymatgen
data_LiSi2N3
_symmetry_space_group_name_H-M   'P 1'
_cell_length_a   4.77980000
_cell_length_b   5.29640000
_cell_length_c   5.31714010
_cell_angle_alpha   119.87105247
_cell_angle_beta   90.00000000
_cell_angle_gamma   90.00000000
_symmetry_Int_Tables_number   1
_chemical_formula_structural   LiSi2N3
_chemical_formula_sum   'Li2 Si4 N6'
_cell_volume   116.72451474
_cell_formula_units_Z   2
loop_
 _symmetry_equiv_pos_site_id
 _symmetry_equiv_pos_as_xyz
  1  'x, y, z'
loop_
 _atom_site_type_symbol
 _atom_site_label
 _atom_site_symmetry_multiplicity
 _atom_site_fract_x
 _atom_site_fract_y
 _atom_site_fract_z
 _atom_site_occupancy
  Li  Li0  1  0.00000000  0.34060000  0.00000000  1.0
  Li  Li1  1  0.50000000  0.65940000  0.00000000  1.0
  Si  Si8  1  0.01339000  0.00283000  0.33202000  1.0
  Si  Si9  1  0.51339000  0.99717000  0.66798000  1.0
  Si  Si10  1  0.51339000  0.32919000  0.33202000  1.0
  Si  Si11  1  0.01339000  0.67081000  0.66798000  1.0
  N  N2  1  0.37410000  0.06030000  0.39780000  1.0
  N  N3  1  0.87410000  0.93970000  0.60220000  1.0
  N  N4  1  0.93530000  0.72630000  0.00000000  1.0
  N  N5  1  0.43530000  0.27370000  0.00000000  1.0
  N  N6  1  0.37410000  0.66250000  0.60220000  1.0
  N  N7  1  0.87410000  0.33750000  0.39780000  1.0
