# generated using pymatgen
data_H2IBr
_symmetry_space_group_name_H-M   'P 1'
_cell_length_a   4.85976243
_cell_length_b   4.86585043
_cell_length_c   5.83338701
_cell_angle_alpha   90.40958741
_cell_angle_beta   90.31396951
_cell_angle_gamma   107.37589863
_symmetry_Int_Tables_number   1
_chemical_formula_structural   H2IBr
_chemical_formula_sum   'H2 I1 Br1'
_cell_volume   131.63901921
_cell_formula_units_Z   1
loop_
 _symmetry_equiv_pos_site_id
 _symmetry_equiv_pos_as_xyz
  1  'x, y, z'
loop_
 _atom_site_type_symbol
 _atom_site_label
 _atom_site_symmetry_multiplicity
 _atom_site_fract_x
 _atom_site_fract_y
 _atom_site_fract_z
 _atom_site_occupancy
  H  H0  1  0.07521835  0.07556399  0.85030631  1
  H  H1  1  0.18476193  0.18453372  0.33992925  1
  I  I2  1  0.87427995  0.87481679  0.64567192  1
  Br  Br3  1  0.36573976  0.36508649  0.16409252  1
