# generated using pymatgen
data_HfZr(GeO4)2
_symmetry_space_group_name_H-M   'P 1'
_cell_length_a   5.72798764
_cell_length_b   5.72798764
_cell_length_c   5.72798764
_cell_angle_alpha   107.69491956
_cell_angle_beta   107.69491956
_cell_angle_gamma   113.08540683
_symmetry_Int_Tables_number   1
_chemical_formula_structural   HfZr(GeO4)2
_chemical_formula_sum   'Hf1 Zr1 Ge2 O8'
_cell_volume   144.23730387
_cell_formula_units_Z   1
loop_
 _symmetry_equiv_pos_site_id
 _symmetry_equiv_pos_as_xyz
  1  'x, y, z'
loop_
 _atom_site_type_symbol
 _atom_site_label
 _atom_site_symmetry_multiplicity
 _atom_site_fract_x
 _atom_site_fract_y
 _atom_site_fract_z
 _atom_site_occupancy
  Hf  Hf0  1  0.75000000  0.25000000  0.50000000  1
  Zr  Zr1  1  0.00000000  0.00000000  0.00000000  1
  Ge  Ge2  1  0.25000000  0.75000000  0.50000000  1
  Ge  Ge3  1  0.50000000  0.50000000  0.00000000  1
  O  O4  1  0.05384694  0.73915159  0.68530465  1
  O  O5  1  0.49517586  0.30673697  0.18843889  1
  O  O6  1  0.11829808  0.30673697  0.81156111  1
  O  O7  1  0.05384694  0.36854229  0.31469535  1
  O  O8  1  0.69326303  0.50482414  0.81156111  1
  O  O9  1  0.26084841  0.94615306  0.31469535  1
  O  O10  1  0.63145771  0.94615306  0.68530465  1
  O  O11  1  0.69326303  0.88170192  0.18843889  1
