# generated using pymatgen
data_LiHBrCl
_symmetry_space_group_name_H-M   'P 1'
_cell_length_a   6.66519959
_cell_length_b   6.66519959
_cell_length_c   6.66519959
_cell_angle_alpha   35.76856945
_cell_angle_beta   35.76856945
_cell_angle_gamma   35.76856945
_symmetry_Int_Tables_number   1
_chemical_formula_structural   LiHBrCl
_chemical_formula_sum   'Li1 H1 Br1 Cl1'
_cell_volume   90.44752663
_cell_formula_units_Z   1
loop_
 _symmetry_equiv_pos_site_id
 _symmetry_equiv_pos_as_xyz
  1  'x, y, z'
loop_
 _atom_site_type_symbol
 _atom_site_label
 _atom_site_symmetry_multiplicity
 _atom_site_fract_x
 _atom_site_fract_y
 _atom_site_fract_z
 _atom_site_occupancy
  Li  Li0  1  0.71538866  0.71538866  0.71538866  1
  H  H1  1  0.21605395  0.21605395  0.21605395  1
  Br  Br2  1  0.10623838  0.10623838  0.10623838  1
  Cl  Cl3  1  0.28909902  0.28909902  0.28909902  1
