# generated using pymatgen
data_BaBe2(BO3)2
_symmetry_space_group_name_H-M   'P 1'
_cell_length_a   6.43615400
_cell_length_b   6.74717240
_cell_length_c   7.27290530
_cell_angle_alpha   77.81674129
_cell_angle_beta   116.26188723
_cell_angle_gamma   118.48651726
_symmetry_Int_Tables_number   1
_chemical_formula_structural   BaBe2(BO3)2
_chemical_formula_sum   'Ba2 Be4 B4 O12'
_cell_volume   248.94105400
_cell_formula_units_Z   2
loop_
 _symmetry_equiv_pos_site_id
 _symmetry_equiv_pos_as_xyz
  1  'x, y, z'
loop_
 _atom_site_type_symbol
 _atom_site_label
 _atom_site_symmetry_multiplicity
 _atom_site_fract_x
 _atom_site_fract_y
 _atom_site_fract_z
 _atom_site_occupancy
  Ba  Ba0  1  0.36967500  0.75165300  0.25224000  1
  Ba  Ba1  1  0.62798800  0.24438800  0.75454400  1
  Be  Be2  1  0.02344400  0.24551500  0.56449900  1
  Be  Be3  1  0.95828400  0.74582400  0.43041000  1
  Be  Be4  1  0.78789600  0.75832700  0.06503900  1
  Be  Be5  1  0.22314700  0.25830900  0.93553100  1
  B  B6  1  0.33500600  0.66973300  0.75028200  1
  B  B7  1  0.09659000  0.18373200  0.25539200  1
  B  B8  1  0.90917700  0.81995400  0.75635700  1
  B  B9  1  0.65295800  0.31618600  0.24492500  1
  O  O10  1  0.02811800  0.06305400  0.74879700  1
  O  O11  1  0.74381400  0.21121200  0.43327900  1
  O  O12  1  0.80789400  0.70639500  0.57829800  1
  O  O13  1  0.10373700  0.29709700  0.06539800  1
  O  O14  1  0.25544700  0.79072300  0.56587700  1
  O  O15  1  0.46892700  0.20838000  0.07839300  1
  O  O16  1  0.21349100  0.44336100  0.74483400  1
  O  O17  1  0.77260000  0.55562700  0.25344300  1
  O  O18  1  0.89400700  0.71122900  0.92891800  1
  O  O19  1  0.53143100  0.80074500  0.93013800  1
  O  O20  1  0.96767000  0.94462700  0.24237800  1
  O  O21  1  0.19994800  0.29966600  0.42964300  1
