# generated using pymatgen
data_BH4Cl
_symmetry_space_group_name_H-M   'P 1'
_cell_length_a   2.98129891
_cell_length_b   4.33946755
_cell_length_c   20.55815057
_cell_angle_alpha   90.00000000
_cell_angle_beta   90.00000000
_cell_angle_gamma   90.00000000
_symmetry_Int_Tables_number   1
_chemical_formula_structural   BH4Cl
_chemical_formula_sum   'B1 H4 Cl1'
_cell_volume   265.96593093
_cell_formula_units_Z   1
loop_
 _symmetry_equiv_pos_site_id
 _symmetry_equiv_pos_as_xyz
  1  'x, y, z'
loop_
 _atom_site_type_symbol
 _atom_site_label
 _atom_site_symmetry_multiplicity
 _atom_site_fract_x
 _atom_site_fract_y
 _atom_site_fract_z
 _atom_site_occupancy
  B  B0  1  0.00000000  0.00000000  0.58149712  1
  H  H1  1  0.00000000  0.75957189  0.60968613  1
  H  H2  1  0.50000000  0.08646625  0.33932377  1
  H  H3  1  0.00000000  0.24042811  0.60968613  1
  H  H4  1  0.50000000  0.91353375  0.33932377  1
  Cl  Cl5  1  0.50000000  0.00000000  0.52048306  1
