# generated using pymatgen
data_CsCN
_symmetry_space_group_name_H-M   'P 1'
_cell_length_a   4.97882188
_cell_length_b   4.97882188
_cell_length_c   9.37336956
_cell_angle_alpha   73.19026731
_cell_angle_beta   73.19026731
_cell_angle_gamma   62.78610174
_symmetry_Int_Tables_number   1
_chemical_formula_structural   CsCN
_chemical_formula_sum   'Cs2 C2 N2'
_cell_volume   194.41335972
_cell_formula_units_Z   2
loop_
 _symmetry_equiv_pos_site_id
 _symmetry_equiv_pos_as_xyz
  1  'x, y, z'
loop_
 _atom_site_type_symbol
 _atom_site_label
 _atom_site_symmetry_multiplicity
 _atom_site_fract_x
 _atom_site_fract_y
 _atom_site_fract_z
 _atom_site_occupancy
  Cs  Cs0  1  0.44813100  0.03471400  0.54153000  1
  Cs  Cs1  1  0.03471400  0.44813100  0.04153000  1
  C  C2  1  0.17007300  0.79054200  0.33126900  1
  C  C3  1  0.79054200  0.17007300  0.83126900  1
  N  N4  1  0.33831500  0.66421900  0.23020100  1
  N  N5  1  0.66421900  0.33831500  0.73020100  1
