# generated using pymatgen
data_H3ClO4
_symmetry_space_group_name_H-M   'P 1'
_cell_length_a   3.92458571
_cell_length_b   5.68854121
_cell_length_c   5.71005278
_cell_angle_alpha   119.52862693
_cell_angle_beta   89.54811601
_cell_angle_gamma   91.09395776
_symmetry_Int_Tables_number   1
_chemical_formula_structural   H3ClO4
_chemical_formula_sum   'H3 Cl1 O4'
_cell_volume   110.89933873
_cell_formula_units_Z   1
loop_
 _symmetry_equiv_pos_site_id
 _symmetry_equiv_pos_as_xyz
  1  'x, y, z'
loop_
 _atom_site_type_symbol
 _atom_site_label
 _atom_site_symmetry_multiplicity
 _atom_site_fract_x
 _atom_site_fract_y
 _atom_site_fract_z
 _atom_site_occupancy
  H  H0  1  0.17967447  0.42383011  0.03748491  1
  H  H1  1  0.17421179  0.08749985  0.82380800  1
  H  H2  1  0.17094246  0.30361810  0.70256121  1
  Cl  Cl3  1  0.90714008  0.60418932  0.51823343  1
  O  O4  1  0.26103611  0.27233091  0.85361306  1
  O  O5  1  0.07032125  0.66291455  0.31160674  1
  O  O6  1  0.05011530  0.81199666  0.78844561  1
  O  O7  1  0.03555656  0.33361950  0.46424803  1
