# generated using pymatgen
data_Be4H7Cl
_symmetry_space_group_name_H-M   'P 1'
_cell_length_a   4.24787729
_cell_length_b   4.64429839
_cell_length_c   11.75825608
_cell_angle_alpha   90.00000000
_cell_angle_beta   90.00000000
_cell_angle_gamma   90.00000000
_symmetry_Int_Tables_number   1
_chemical_formula_structural   Be4H7Cl
_chemical_formula_sum   'Be8 H14 Cl2'
_cell_volume   231.97169282
_cell_formula_units_Z   2
loop_
 _symmetry_equiv_pos_site_id
 _symmetry_equiv_pos_as_xyz
  1  'x, y, z'
loop_
 _atom_site_type_symbol
 _atom_site_label
 _atom_site_symmetry_multiplicity
 _atom_site_fract_x
 _atom_site_fract_y
 _atom_site_fract_z
 _atom_site_occupancy
  Be  Be0  1  0.73541300  0.49261007  0.90647083  1
  Be  Be1  1  0.02723705  0.83358136  0.24675792  1
  Be  Be2  1  0.52723705  0.16641864  0.25324208  1
  Be  Be3  1  0.23541300  0.50738993  0.59352917  1
  Be  Be4  1  0.23541300  0.50738993  0.40647083  1
  Be  Be5  1  0.73541300  0.49261007  0.09352917  1
  Be  Be6  1  0.02723705  0.83358136  0.75324208  1
  Be  Be7  1  0.52723705  0.16641864  0.74675792  1
  H  H8  1  0.94132168  0.70078226  0.14255926  1
  H  H9  1  0.44132168  0.29921774  0.35744074  1
  H  H10  1  0.49590041  0.37295196  0.83609782  1
  H  H11  1  0.99590041  0.62704804  0.66390218  1
  H  H12  1  0.99590041  0.62704804  0.33609782  1
  H  H13  1  0.49590041  0.37295196  0.16390218  1
  H  H14  1  0.34755487  0.91553031  0.77682196  1
  H  H15  1  0.84755487  0.08446969  0.72317804  1
  H  H16  1  0.84755487  0.08446969  0.27682196  1
  H  H17  1  0.34755487  0.91553031  0.22317804  1
  H  H18  1  0.57130498  0.63739684  0.00000000  1
  H  H19  1  0.07130498  0.36260316  0.50000000  1
  H  H20  1  0.94132168  0.70078226  0.85744074  1
  H  H21  1  0.44132168  0.29921774  0.64255926  1
  Cl  Cl22  1  0.48866798  0.78605876  0.50000000  1
  Cl  Cl23  1  0.98866798  0.21394124  0.00000000  1
