# generated using pymatgen
data_BaBePO4F
_symmetry_space_group_name_H-M   'P 1'
_cell_length_a   4.92955479
_cell_length_b   4.93205027
_cell_length_c   9.14919470
_cell_angle_alpha   105.32269847
_cell_angle_beta   105.34061512
_cell_angle_gamma   90.12570186
_symmetry_Int_Tables_number   1
_chemical_formula_structural   BaBePO4F
_chemical_formula_sum   'Ba2 Be2 P2 O8 F2'
_cell_volume   206.26892276
_cell_formula_units_Z   2
loop_
 _symmetry_equiv_pos_site_id
 _symmetry_equiv_pos_as_xyz
  1  'x, y, z'
loop_
 _atom_site_type_symbol
 _atom_site_label
 _atom_site_symmetry_multiplicity
 _atom_site_fract_x
 _atom_site_fract_y
 _atom_site_fract_z
 _atom_site_occupancy
  Ba  Ba0  1  0.00054800  0.00058900  0.00075300  1.0
  Ba  Ba1  1  0.74972400  0.25031800  0.49947900  1.0
  Be  Be2  1  0.16731600  0.65103600  0.33657500  1.0
  Be  Be3  1  0.39989200  0.41766800  0.83587200  1.0
  P  P4  1  0.58260800  0.56236400  0.16537300  1.0
  P  P5  1  0.31240800  0.83440000  0.66542000  1.0
  O  O6  1  0.83987600  0.73629500  0.29712600  1.0
  O  O7  1  0.60285400  0.60431000  0.00502700  1.0
  O  O8  1  0.99928100  0.83310600  0.65886600  1.0
  O  O9  1  0.30661800  0.68636100  0.19844000  1.0
  O  O10  1  0.35502400  0.85430800  0.50532600  1.0
  O  O11  1  0.58213800  0.24893500  0.15934100  1.0
  O  O12  1  0.43699200  0.55744000  0.69869400  1.0
  O  O13  1  0.48655900  0.09097000  0.79746100  1.0
  F  F14  1  0.17367900  0.33612700  0.34833700  1.0
  F  F15  1  0.08478300  0.42369100  0.84716800  1.0
