# generated using pymatgen
data_Ca(HCl)2
_symmetry_space_group_name_H-M   'P 1'
_cell_length_a   6.65876635
_cell_length_b   4.05013944
_cell_length_c   8.75840916
_cell_angle_alpha   79.75730431
_cell_angle_beta   90.00000000
_cell_angle_gamma   90.00000000
_symmetry_Int_Tables_number   1
_chemical_formula_structural   Ca(HCl)2
_chemical_formula_sum   'Ca2 H4 Cl4'
_cell_volume   232.44063344
_cell_formula_units_Z   2
loop_
 _symmetry_equiv_pos_site_id
 _symmetry_equiv_pos_as_xyz
  1  'x, y, z'
loop_
 _atom_site_type_symbol
 _atom_site_label
 _atom_site_symmetry_multiplicity
 _atom_site_fract_x
 _atom_site_fract_y
 _atom_site_fract_z
 _atom_site_occupancy
  Ca  Ca0  1  0.94404692  0.67666341  0.68657576  1
  Ca  Ca1  1  0.44404692  0.32333659  0.31342424  1
  H  H2  1  0.29964153  0.52980302  0.80538983  1
  H  H3  1  0.77549223  0.35230226  0.13898451  1
  H  H4  1  0.79964153  0.47019698  0.19461017  1
  H  H5  1  0.27549223  0.64769774  0.86101549  1
  Cl  Cl6  1  0.15140118  0.23635313  0.53448650  1
  Cl  Cl7  1  0.81471913  0.10995387  0.85834122  1
  Cl  Cl8  1  0.65140118  0.76364687  0.46551350  1
  Cl  Cl9  1  0.31471913  0.89004613  0.14165878  1
