# generated using pymatgen
data_Li5P(O2F)2
_symmetry_space_group_name_H-M   'P 1'
_cell_length_a   4.79314369
_cell_length_b   4.79314369
_cell_length_c   5.75754377
_cell_angle_alpha   90.00000000
_cell_angle_beta   90.00000000
_cell_angle_gamma   120.02429829
_symmetry_Int_Tables_number   1
_chemical_formula_structural   Li5P(O2F)2
_chemical_formula_sum   'Li5 P1 O4 F2'
_cell_volume   114.52555091
_cell_formula_units_Z   1
loop_
 _symmetry_equiv_pos_site_id
 _symmetry_equiv_pos_as_xyz
  1  'x, y, z'
loop_
 _atom_site_type_symbol
 _atom_site_label
 _atom_site_symmetry_multiplicity
 _atom_site_fract_x
 _atom_site_fract_y
 _atom_site_fract_z
 _atom_site_occupancy
  Li  Li0  1  0.92319464  0.29450192  0.75173631  1
  Li  Li1  1  0.60528371  0.60528371  0.50000000  1
  Li  Li2  1  0.92319464  0.29450192  0.24826369  1
  Li  Li3  1  0.29450192  0.92319464  0.24826369  1
  Li  Li4  1  0.29450192  0.92319464  0.75173631  1
  P  P5  1  0.57485286  0.57485286  0.00000000  1
  O  O6  1  0.38223313  0.38223313  0.78107689  1
  O  O7  1  0.38223313  0.38223313  0.21892311  1
  O  O8  1  0.61082335  0.91686776  0.00000000  1
  O  O9  1  0.91686776  0.61082335  0.00000000  1
  F  F10  1  0.02429423  0.66237269  0.50000000  1
  F  F11  1  0.66237269  0.02429423  0.50000000  1
