# generated using pymatgen
data_H5NF2
_symmetry_space_group_name_H-M   'P 1'
_cell_length_a   4.49525080
_cell_length_b   4.56228574
_cell_length_c   5.44610032
_cell_angle_alpha   102.43801660
_cell_angle_beta   98.80472219
_cell_angle_gamma   109.96181822
_symmetry_Int_Tables_number   1
_chemical_formula_structural   H5NF2
_chemical_formula_sum   'H5 N1 F2'
_cell_volume   99.34438957
_cell_formula_units_Z   1
loop_
 _symmetry_equiv_pos_site_id
 _symmetry_equiv_pos_as_xyz
  1  'x, y, z'
loop_
 _atom_site_type_symbol
 _atom_site_label
 _atom_site_symmetry_multiplicity
 _atom_site_fract_x
 _atom_site_fract_y
 _atom_site_fract_z
 _atom_site_occupancy
  H  H0  1  0.26167054  0.81788530  0.53172710  1
  H  H1  1  0.00544987  0.90698230  0.15012371  1
  H  H2  1  0.16332696  0.05458554  0.92079778  1
  H  H3  1  0.06530474  0.29875017  0.15586792  1
  H  H4  1  0.76723487  0.99255436  0.91739133  1
  N  N5  1  0.99941973  0.06300108  0.03644394  1
  F  F6  1  0.10306067  0.67156030  0.32605973  1
  F  F7  1  0.41153362  0.97168296  0.73859349  1
