# generated using pymatgen
data_H7(OF)2
_symmetry_space_group_name_H-M   'P 1'
_cell_length_a   5.88084287
_cell_length_b   5.90554304
_cell_length_c   6.97687647
_cell_angle_alpha   93.79587560
_cell_angle_beta   108.13895609
_cell_angle_gamma   114.03265603
_symmetry_Int_Tables_number   1
_chemical_formula_structural   H7(OF)2
_chemical_formula_sum   'H14 O4 F4'
_cell_volume   205.03690601
_cell_formula_units_Z   2
loop_
 _symmetry_equiv_pos_site_id
 _symmetry_equiv_pos_as_xyz
  1  'x, y, z'
loop_
 _atom_site_type_symbol
 _atom_site_label
 _atom_site_symmetry_multiplicity
 _atom_site_fract_x
 _atom_site_fract_y
 _atom_site_fract_z
 _atom_site_occupancy
  H  H0  1  0.02931087  0.65961890  0.77416027  1
  H  H1  1  0.11003812  0.69324523  0.88804584  1
  H  H2  1  0.83855350  0.11807242  0.68364044  1
  H  H3  1  0.63702916  0.84746719  0.73619265  1
  H  H4  1  0.67557463  0.96536647  0.33736739  1
  H  H5  1  0.52534142  0.56414826  0.22020904  1
  H  H6  1  0.53012717  0.34071052  0.04410846  1
  H  H7  1  0.30091552  0.59192853  0.55641142  1
  H  H8  1  0.46896145  0.48200239  0.72899023  1
  H  H9  1  0.67087419  0.15007868  0.82670468  1
  H  H10  1  0.31917223  0.15793318  0.28659022  1
  H  H11  1  0.13106781  0.84773604  0.34038260  1
  H  H12  1  0.07423674  0.11172057  0.37689033  1
  H  H13  1  0.76779721  0.48577662  0.29771292  1
  O  O14  1  0.77438573  0.05897400  0.79819159  1
  O  O15  1  0.56379867  0.41054726  0.21521300  1
  O  O16  1  0.48120303  0.60981845  0.64114719  1
  O  O17  1  0.15007080  0.03343920  0.29541120  1
  F  F18  1  0.06377097  0.63968776  0.39074804  1
  F  F19  1  0.50111266  0.27735673  0.86721468  1
  F  F20  1  0.50356507  0.81392134  0.22109379  1
  F  F21  1  0.88309604  0.14044924  0.47357701  1
