# generated using pymatgen
data_BaNaAlF6
_symmetry_space_group_name_H-M   'P 1'
_cell_length_a   5.57828542
_cell_length_b   5.57828542
_cell_length_c   5.34804683
_cell_angle_alpha   90.00000000
_cell_angle_beta   90.00000000
_cell_angle_gamma   120.00000000
_symmetry_Int_Tables_number   1
_chemical_formula_structural   BaNaAlF6
_chemical_formula_sum   'Ba1 Na1 Al1 F6'
_cell_volume   144.12101003
_cell_formula_units_Z   1
loop_
 _symmetry_equiv_pos_site_id
 _symmetry_equiv_pos_as_xyz
  1  'x, y, z'
loop_
 _atom_site_type_symbol
 _atom_site_label
 _atom_site_symmetry_multiplicity
 _atom_site_fract_x
 _atom_site_fract_y
 _atom_site_fract_z
 _atom_site_occupancy
  Ba  Ba0  1  0.33333333  0.66666667  0.00000000  1
  Na  Na1  1  0.66666667  0.33333333  0.50000000  1
  Al  Al2  1  -0.00000000  0.00000000  0.50000000  1
  F  F3  1  0.73437422  0.72547353  0.69777834  1
  F  F4  1  0.27452647  0.00890070  0.69777834  1
  F  F5  1  0.99109930  0.26562578  0.69777834  1
  F  F6  1  0.27452647  0.26562578  0.30222166  1
  F  F7  1  0.73437422  0.00890070  0.30222166  1
  F  F8  1  0.99109930  0.72547353  0.30222166  1
