# generated using pymatgen
data_BaMgF4
_symmetry_space_group_name_H-M   'P 1'
_cell_length_a   7.51388159
_cell_length_b   7.51388159
_cell_length_c   5.82417437
_cell_angle_alpha   90.00000000
_cell_angle_beta   90.00000000
_cell_angle_gamma   148.02853683
_symmetry_Int_Tables_number   1
_chemical_formula_structural   BaMgF4
_chemical_formula_sum   'Ba2 Mg2 F8'
_cell_volume   174.11108303
_cell_formula_units_Z   2
loop_
 _symmetry_equiv_pos_site_id
 _symmetry_equiv_pos_as_xyz
  1  'x, y, z'
loop_
 _atom_site_type_symbol
 _atom_site_label
 _atom_site_symmetry_multiplicity
 _atom_site_fract_x
 _atom_site_fract_y
 _atom_site_fract_z
 _atom_site_occupancy
  Ba  Ba0  1  0.64623962  0.35376038  0.15537074  1
  Ba  Ba1  1  0.35376038  0.64623962  0.65537074  1
  Mg  Mg2  1  0.91356617  0.08643383  0.18897577  1
  Mg  Mg3  1  0.08643383  0.91356617  0.68897577  1
  F  F4  1  0.42164379  0.57835620  0.19540262  1
  F  F5  1  0.57835620  0.42164379  0.69540262  1
  F  F6  1  0.80430784  0.19569217  0.38882642  1
  F  F7  1  0.19569217  0.80430784  0.88882642  1
  F  F8  1  0.02317022  0.97682978  0.99429323  1
  F  F9  1  0.97682978  0.02317022  0.49429323  1
  F  F10  1  0.16825196  0.83174804  0.42661122  1
  F  F11  1  0.83174804  0.16825196  0.92661122  1
