# generated using pymatgen
data_RbLiSiF6
_symmetry_space_group_name_H-M   'P 1'
_cell_length_a   5.14488873
_cell_length_b   5.14488873
_cell_length_c   6.00135996
_cell_angle_alpha   89.98118121
_cell_angle_beta   89.98118121
_cell_angle_gamma   120.03736924
_symmetry_Int_Tables_number   1
_chemical_formula_structural   RbLiSiF6
_chemical_formula_sum   'Rb1 Li1 Si1 F6'
_cell_volume   137.52084376
_cell_formula_units_Z   1
loop_
 _symmetry_equiv_pos_site_id
 _symmetry_equiv_pos_as_xyz
  1  'x, y, z'
loop_
 _atom_site_type_symbol
 _atom_site_label
 _atom_site_symmetry_multiplicity
 _atom_site_fract_x
 _atom_site_fract_y
 _atom_site_fract_z
 _atom_site_occupancy
  Rb  Rb0  1  0.99987488  0.00012512  0.00000000  1
  Li  Li1  1  0.33342058  0.66657942  0.50000000  1
  Si  Si2  1  0.66665333  0.33334667  0.50000000  1
  F  F3  1  0.94948724  0.35266286  0.66497687  1
  F  F4  1  0.64733714  0.05051276  0.33502313  1
  F  F5  1  0.40320734  0.35273229  0.33500074  1
  F  F6  1  0.94984688  0.59714650  0.33501507  1
  F  F7  1  0.64726771  0.59679266  0.66499926  1
  F  F8  1  0.40285350  0.05015312  0.66498493  1
