# generated using pymatgen
data_Hf3N2O3
_symmetry_space_group_name_H-M   'P 1'
_cell_length_a   4.05151200
_cell_length_b   5.63169513
_cell_length_c   10.56743402
_cell_angle_alpha   90.25843383
_cell_angle_beta   90.00000000
_cell_angle_gamma   111.08215764
_symmetry_Int_Tables_number   1
_chemical_formula_structural   Hf3N2O3
_chemical_formula_sum   'Hf6 N4 O6'
_cell_volume   224.97430176
_cell_formula_units_Z   2
loop_
 _symmetry_equiv_pos_site_id
 _symmetry_equiv_pos_as_xyz
  1  'x, y, z'
loop_
 _atom_site_type_symbol
 _atom_site_label
 _atom_site_symmetry_multiplicity
 _atom_site_fract_x
 _atom_site_fract_y
 _atom_site_fract_z
 _atom_site_occupancy
  Hf  Hf0  1  0.85444500  0.70889000  0.43463000  1.0
  Hf  Hf1  1  0.85311500  0.70623000  0.06257800  1.0
  Hf  Hf2  1  0.80675500  0.61351000  0.75189000  1.0
  Hf  Hf3  1  0.19275100  0.38550200  0.24356400  1.0
  Hf  Hf4  1  0.14228350  0.28456700  0.94150100  1.0
  Hf  Hf5  1  0.13821450  0.27642900  0.56232200  1.0
  N  N6  1  0.70033500  0.40067000  0.57359200  1.0
  N  N7  1  0.69713050  0.39426100  0.91929900  1.0
  N  N8  1  0.76250400  0.52500800  0.25546300  1.0
  N  N9  1  0.29914050  0.59828100  0.07437100  1.0
  O  O10  1  0.95474300  0.90948600  0.88271000  1.0
  O  O11  1  0.95670400  0.91340800  0.61846700  1.0
  O  O12  1  0.04665900  0.09331800  0.38730200  1.0
  O  O13  1  0.04410800  0.08821600  0.11580300  1.0
  O  O14  1  0.30665650  0.61331300  0.42874000  1.0
  O  O15  1  0.24445600  0.48891200  0.74776700  1.0
