# generated using pymatgen
data_FeTeAs
_symmetry_space_group_name_H-M   'P 1'
_cell_length_a   6.12778668
_cell_length_b   6.21814450
_cell_length_c   6.28159379
_cell_angle_alpha   65.97866803
_cell_angle_beta   90.00000000
_cell_angle_gamma   90.00000000
_symmetry_Int_Tables_number   1
_chemical_formula_structural   FeTeAs
_chemical_formula_sum   'Fe4 Te4 As4'
_cell_volume   218.62127997
_cell_formula_units_Z   4
loop_
 _symmetry_equiv_pos_site_id
 _symmetry_equiv_pos_as_xyz
  1  'x, y, z'
loop_
 _atom_site_type_symbol
 _atom_site_label
 _atom_site_symmetry_multiplicity
 _atom_site_fract_x
 _atom_site_fract_y
 _atom_site_fract_z
 _atom_site_occupancy
  Fe  Fe0  1  0.99254200  0.28061983  0.46934669  1
  Fe  Fe1  1  0.49254200  0.71938017  0.53065331  1
  Fe  Fe2  1  0.49250738  0.26722554  0.95199009  1
  Fe  Fe3  1  0.99250738  0.73277446  0.04800991  1
  Te  Te4  1  0.86105925  0.34217367  0.07619846  1
  Te  Te5  1  0.86490493  0.85179675  0.62135652  1
  Te  Te6  1  0.36490493  0.14820325  0.37864348  1
  Te  Te7  1  0.36105925  0.65782633  0.92380154  1
  As  As8  1  0.14597696  0.64543203  0.41625559  1
  As  As9  1  0.13921147  0.14405291  0.86895445  1
  As  As10  1  0.63921147  0.85594709  0.13104555  1
  As  As11  1  0.64597696  0.35456797  0.58374441  1
