# generated using pymatgen
data_Al2GaAs3
_symmetry_space_group_name_H-M   'P 1'
_cell_length_a   7.02782115
_cell_length_b   7.02782115
_cell_length_c   7.02879755
_cell_angle_alpha   80.39309893
_cell_angle_beta   80.39309893
_cell_angle_gamma   119.99268929
_symmetry_Int_Tables_number   1
_chemical_formula_structural   Al2GaAs3
_chemical_formula_sum   'Al4 Ga2 As6'
_cell_volume   283.42804416
_cell_formula_units_Z   2
loop_
 _symmetry_equiv_pos_site_id
 _symmetry_equiv_pos_as_xyz
  1  'x, y, z'
loop_
 _atom_site_type_symbol
 _atom_site_label
 _atom_site_symmetry_multiplicity
 _atom_site_fract_x
 _atom_site_fract_y
 _atom_site_fract_z
 _atom_site_occupancy
  Al  Al0  1  0.42936301  0.59573682  0.99228801  1
  Al  Al1  1  0.26178045  0.76186623  0.49227817  1
  Al  Al2  1  0.59573682  0.42936301  0.49228801  1
  Al  Al3  1  0.76186623  0.26178045  0.99227817  1
  Ga  Ga4  1  0.92861512  0.09545542  0.49216505  1
  Ga  Ga5  1  0.09545542  0.92861512  0.99216505  1
  As  As6  1  0.22153449  0.05417512  0.61636513  1
  As  As7  1  0.05417512  0.22153449  0.11636513  1
  As  As8  1  0.38788980  0.88675825  0.11780554  1
  As  As9  1  0.88675825  0.38788980  0.61780554  1
  As  As10  1  0.71941609  0.55244119  0.11782009  1
  As  As11  1  0.55244119  0.71941609  0.61782009  1
