# generated using pymatgen
data_GaSiAsSe
_symmetry_space_group_name_H-M   'P 1'
_cell_length_a   3.76259237
_cell_length_b   3.76259237
_cell_length_c   8.75347187
_cell_angle_alpha   89.92849209
_cell_angle_beta   89.92849209
_cell_angle_gamma   59.99349384
_symmetry_Int_Tables_number   1
_chemical_formula_structural   GaSiAsSe
_chemical_formula_sum   'Ga1 Si1 As1 Se1'
_cell_volume   107.31400057
_cell_formula_units_Z   1
loop_
 _symmetry_equiv_pos_site_id
 _symmetry_equiv_pos_as_xyz
  1  'x, y, z'
loop_
 _atom_site_type_symbol
 _atom_site_label
 _atom_site_symmetry_multiplicity
 _atom_site_fract_x
 _atom_site_fract_y
 _atom_site_fract_z
 _atom_site_occupancy
  Ga  Ga0  1  0.23892332  0.23892332  0.78855051  1
  Si  Si1  1  0.23962519  0.23962519  0.51362186  1
  As  As2  1  0.90653664  0.90653664  0.38985263  1
  Se  Se3  1  0.57202484  0.57202484  0.92405501  1
