# generated using pymatgen
data_Sn2GeTe3
_symmetry_space_group_name_H-M   'P 1'
_cell_length_a   4.38501700
_cell_length_b   12.28864900
_cell_length_c   14.33412802
_cell_angle_alpha   89.74494848
_cell_angle_beta   90.00000000
_cell_angle_gamma   90.00000000
_symmetry_Int_Tables_number   1
_chemical_formula_structural   Sn2GeTe3
_chemical_formula_sum   'Sn8 Ge4 Te12'
_cell_volume   772.40023462
_cell_formula_units_Z   4
loop_
 _symmetry_equiv_pos_site_id
 _symmetry_equiv_pos_as_xyz
  1  'x, y, z'
loop_
 _atom_site_type_symbol
 _atom_site_label
 _atom_site_symmetry_multiplicity
 _atom_site_fract_x
 _atom_site_fract_y
 _atom_site_fract_z
 _atom_site_occupancy
  Sn  Sn0  1  0.00000000  0.88332900  0.36458900  1
  Sn  Sn1  1  0.00000000  0.88313200  0.70019600  1
  Sn  Sn2  1  0.50000000  0.61441700  0.19801500  1
  Sn  Sn3  1  0.50000000  0.61398400  0.53260900  1
  Sn  Sn4  1  0.50000000  0.61664500  0.86648100  1
  Sn  Sn5  1  0.50000000  0.11725300  0.29995000  1
  Sn  Sn6  1  0.50000000  0.11730500  0.63404300  1
  Sn  Sn7  1  0.50000000  0.11633200  0.96759400  1
  Ge  Ge8  1  0.00000000  0.37327100  0.12774300  1
  Ge  Ge9  1  0.00000000  0.37346800  0.46083900  1
  Ge  Ge10  1  0.00000000  0.37372600  0.79436200  1
  Ge  Ge11  1  0.00000000  0.87132000  0.03613700  1
  Te  Te12  1  0.00000000  0.14988700  0.15989800  1
  Te  Te13  1  0.00000000  0.15059000  0.49396700  1
  Te  Te14  1  0.00000000  0.15060500  0.82757600  1
  Te  Te15  1  0.00000000  0.64210500  0.33863600  1
  Te  Te16  1  0.00000000  0.64112600  0.67331700  1
  Te  Te17  1  0.00000000  0.64740200  0.00799100  1
  Te  Te18  1  0.50000000  0.86026000  0.16252900  1
  Te  Te19  1  0.50000000  0.85996500  0.50509200  1
  Te  Te20  1  0.50000000  0.86172700  0.84182300  1
  Te  Te21  1  0.50000000  0.36027100  0.33553900  1
  Te  Te22  1  0.50000000  0.36064800  0.66884400  1
  Te  Te23  1  0.50000000  0.36123200  0.00223200  1
