# generated using pymatgen
data_GaBiTe
_symmetry_space_group_name_H-M   'P 1'
_cell_length_a   4.22210000
_cell_length_b   6.99985000
_cell_length_c   8.61163000
_cell_angle_alpha   113.90056998
_cell_angle_beta   103.94703998
_cell_angle_gamma   90.02066998
_symmetry_Int_Tables_number   1
_chemical_formula_structural   GaBiTe
_chemical_formula_sum   'Ga2 Bi2 Te2'
_cell_volume   224.44280064
_cell_formula_units_Z   2
loop_
 _symmetry_equiv_pos_site_id
 _symmetry_equiv_pos_as_xyz
  1  'x, y, z'
loop_
 _atom_site_type_symbol
 _atom_site_label
 _atom_site_symmetry_multiplicity
 _atom_site_fract_x
 _atom_site_fract_y
 _atom_site_fract_z
 _atom_site_occupancy
  Ga  Ga0  1  0.86796000  0.30712000  0.44671000  1
  Ga  Ga1  1  0.35854000  0.84454000  0.42759000  1
  Bi  Bi2  1  0.04309000  0.40731000  0.80355000  1
  Bi  Bi3  1  0.53577000  0.09116000  0.78907000  1
  Te  Te4  1  0.76588000  0.88982000  0.23926000  1
  Te  Te5  1  0.29470000  0.41863000  0.29763000  1
