# generated using pymatgen
data_CdBi4S7
_symmetry_space_group_name_H-M   'P 1'
_cell_length_a   6.95836983
_cell_length_b   6.95836983
_cell_length_c   12.12840001
_cell_angle_alpha   75.69621975
_cell_angle_beta   75.69621975
_cell_angle_gamma   33.64613025
_symmetry_Int_Tables_number   1
_chemical_formula_structural   CdBi4S7
_chemical_formula_sum   'Cd1 Bi4 S7'
_cell_volume   314.34461948
_cell_formula_units_Z   1
loop_
 _symmetry_equiv_pos_site_id
 _symmetry_equiv_pos_as_xyz
  1  'x, y, z'
loop_
 _atom_site_type_symbol
 _atom_site_label
 _atom_site_symmetry_multiplicity
 _atom_site_fract_x
 _atom_site_fract_y
 _atom_site_fract_z
 _atom_site_occupancy
  Cd  Cd0  1  0.11423513  0.11423513  0.57802280  1
  Bi  Bi1  1  0.35103917  0.35103917  0.75157844  1
  Bi  Bi2  1  0.69301411  0.69301410  0.15589201  1
  Bi  Bi3  1  0.99953120  0.99953120  0.01018038  1
  Bi  Bi4  1  0.86438037  0.86438037  0.44020200  1
  S  S5  1  0.24623660  0.24623660  0.38037791  1
  S  S6  1  0.73655263  0.73655263  0.64798682  1
  S  S7  1  0.65109816  0.65109816  0.95387336  1
  S  S8  1  0.34038208  0.34038207  0.04144080  1
  S  S9  1  0.98234365  0.98234365  0.77938338  1
  S  S10  1  0.04426414  0.04426414  0.21994678  1
  S  S11  1  0.47691977  0.47691976  0.54111434  1
