# generated using pymatgen
data_AlGa3P4
_symmetry_space_group_name_H-M   'P 1'
_cell_length_a   6.73864729
_cell_length_b   6.73864729
_cell_length_c   6.73864729
_cell_angle_alpha   131.80356564
_cell_angle_beta   131.80356564
_cell_angle_gamma   70.53945108
_symmetry_Int_Tables_number   1
_chemical_formula_structural   AlGa3P4
_chemical_formula_sum   'Al1 Ga3 P4'
_cell_volume   166.59695906
_cell_formula_units_Z   1
loop_
 _symmetry_equiv_pos_site_id
 _symmetry_equiv_pos_as_xyz
  1  'x, y, z'
loop_
 _atom_site_type_symbol
 _atom_site_label
 _atom_site_symmetry_multiplicity
 _atom_site_fract_x
 _atom_site_fract_y
 _atom_site_fract_z
 _atom_site_occupancy
  Al  Al0  1  0.00000000  0.00000000  0.00000000  1
  Ga  Ga1  1  0.50000000  0.50000000  1.00000000  1
  Ga  Ga2  1  0.25000000  0.75000000  0.50000000  1
  Ga  Ga3  1  0.75000000  0.25000000  0.50000000  1
  P  P4  1  0.37435714  0.37435714  0.49923429  1
  P  P5  1  0.87512285  0.87512285  0.50076571  1
  P  P6  1  0.62564286  0.12487715  1.00000000  1
  P  P7  1  0.12487715  0.62564286  1.00000000  1
