# generated using pymatgen
data_NaAlTe2
_symmetry_space_group_name_H-M   'P 1'
_cell_length_a   7.14989940
_cell_length_b   7.15021287
_cell_length_c   8.17267278
_cell_angle_alpha   102.64697910
_cell_angle_beta   103.15993964
_cell_angle_gamma   119.26837032
_symmetry_Int_Tables_number   1
_chemical_formula_structural   NaAlTe2
_chemical_formula_sum   'Na2 Al2 Te4'
_cell_volume   326.98202122
_cell_formula_units_Z   2
loop_
 _symmetry_equiv_pos_site_id
 _symmetry_equiv_pos_as_xyz
  1  'x, y, z'
loop_
 _atom_site_type_symbol
 _atom_site_label
 _atom_site_symmetry_multiplicity
 _atom_site_fract_x
 _atom_site_fract_y
 _atom_site_fract_z
 _atom_site_occupancy
  Na  Na0  1  0.46103280  0.86650990  0.93723843  1
  Na  Na1  1  0.76105278  0.16355655  0.53700973  1
  Al  Al2  1  0.98899652  0.66585731  0.23735187  1
  Al  Al3  1  0.26208471  0.39284672  0.23730605  1
  Te  Te4  1  0.65728148  0.72593833  0.23748734  1
  Te  Te5  1  0.91343026  0.31910948  0.96656404  1
  Te  Te6  1  0.32166403  0.06066184  0.23669207  1
  Te  Te7  1  0.18543887  0.58737419  0.50806463  1
