# generated using pymatgen
data_GaTeBr
_symmetry_space_group_name_H-M   'P 1'
_cell_length_a   4.12421740
_cell_length_b   6.88629084
_cell_length_c   7.61402951
_cell_angle_alpha   89.89106861
_cell_angle_beta   90.00000000
_cell_angle_gamma   90.00000000
_symmetry_Int_Tables_number   1
_chemical_formula_structural   GaTeBr
_chemical_formula_sum   'Ga2 Te2 Br2'
_cell_volume   216.24231488
_cell_formula_units_Z   2
loop_
 _symmetry_equiv_pos_site_id
 _symmetry_equiv_pos_as_xyz
  1  'x, y, z'
loop_
 _atom_site_type_symbol
 _atom_site_label
 _atom_site_symmetry_multiplicity
 _atom_site_fract_x
 _atom_site_fract_y
 _atom_site_fract_z
 _atom_site_occupancy
  Ga  Ga0  1  0.50000000  0.89188783  0.08368999  1
  Ga  Ga1  1  0.00000000  0.39158031  0.20822089  1
  Te  Te2  1  0.50000000  0.27323539  0.00790447  1
  Te  Te3  1  0.00000000  0.77265402  0.28401471  1
  Br  Br4  1  0.00000000  0.25097530  0.48942021  1
  Br  Br5  1  0.50000000  0.75265714  0.80246975  1
