# generated using pymatgen
data_Li2BeSiSe4
_symmetry_space_group_name_H-M   'P 1'
_cell_length_a   5.84173194
_cell_length_b   5.84294977
_cell_length_c   6.51486808
_cell_angle_alpha   116.64039163
_cell_angle_beta   116.63310324
_cell_angle_gamma   90.00473355
_symmetry_Int_Tables_number   1
_chemical_formula_structural   Li2BeSiSe4
_chemical_formula_sum   'Li2 Be1 Si1 Se4'
_cell_volume   171.95565932
_cell_formula_units_Z   1
loop_
 _symmetry_equiv_pos_site_id
 _symmetry_equiv_pos_as_xyz
  1  'x, y, z'
loop_
 _atom_site_type_symbol
 _atom_site_label
 _atom_site_symmetry_multiplicity
 _atom_site_fract_x
 _atom_site_fract_y
 _atom_site_fract_z
 _atom_site_occupancy
  Li  Li0  1  0.51407851  0.01394798  0.02800904  1
  Li  Li1  1  0.76410497  0.76403901  0.52816290  1
  Be  Be2  1  0.01410126  0.51432239  0.02840515  1
  Si  Si3  1  0.26414227  0.26411405  0.52828764  1
  Se  Se4  1  0.34265593  0.88391106  0.26931720  1
  Se  Se5  1  0.14273701  0.18568205  0.78720883  1
  Se  Se6  1  0.64441313  0.60151763  0.78715502  1
  Se  Se7  1  0.92671391  0.38541381  0.26935221  1
