# generated using pymatgen
data_LiBF4
_symmetry_space_group_name_H-M   'P 1'
_cell_length_a   4.89200000
_cell_length_b   4.89200000
_cell_length_c   11.00200000
_cell_angle_alpha   90.00000000
_cell_angle_beta   90.00000000
_cell_angle_gamma   120.00000000
_symmetry_Int_Tables_number   1
_chemical_formula_structural   LiBF4
_chemical_formula_sum   'Li3 B3 F12'
_cell_volume   228.02116963
_cell_formula_units_Z   3
loop_
 _symmetry_equiv_pos_site_id
 _symmetry_equiv_pos_as_xyz
  1  'x, y, z'
loop_
 _atom_site_type_symbol
 _atom_site_label
 _atom_site_symmetry_multiplicity
 _atom_site_fract_x
 _atom_site_fract_y
 _atom_site_fract_z
 _atom_site_occupancy
  Li  Li0  1  0.00000000  0.46220000  0.66666667  1.0
  Li  Li1  1  0.46220000  0.00000000  0.33333333  1.0
  Li  Li2  1  0.53780000  0.53780000  0.00000000  1.0
  B  B3  1  0.53840000  0.53840000  0.50000000  1.0
  B  B4  1  0.00000000  0.46160000  0.16666667  1.0
  B  B5  1  0.46160000  0.00000000  0.83333333  1.0
  F  F6  1  0.57400000  0.89550000  0.92817000  1.0
  F  F7  1  0.10450000  0.67850000  0.26150333  1.0
  F  F8  1  0.32150000  0.42600000  0.59483667  1.0
  F  F9  1  0.67850000  0.10450000  0.73849667  1.0
  F  F10  1  0.42600000  0.32150000  0.40516333  1.0
  F  F11  1  0.89550000  0.57400000  0.07183000  1.0
  F  F12  1  0.24580000  0.42140000  0.12576000  1.0
  F  F13  1  0.57860000  0.82440000  0.45909333  1.0
  F  F14  1  0.17560000  0.75420000  0.79242667  1.0
  F  F15  1  0.82440000  0.57860000  0.54090667  1.0
  F  F16  1  0.75420000  0.17560000  0.20757333  1.0
  F  F17  1  0.42140000  0.24580000  0.87424000  1.0
