# generated using pymatgen
data_TlHBrCl
_symmetry_space_group_name_H-M   'P 1'
_cell_length_a   4.98946644
_cell_length_b   4.98946644
_cell_length_c   7.40991231
_cell_angle_alpha   66.67056105
_cell_angle_beta   66.67056105
_cell_angle_gamma   65.51562593
_symmetry_Int_Tables_number   1
_chemical_formula_structural   TlHBrCl
_chemical_formula_sum   'Tl1 H1 Br1 Cl1'
_cell_volume   148.10048092
_cell_formula_units_Z   1
loop_
 _symmetry_equiv_pos_site_id
 _symmetry_equiv_pos_as_xyz
  1  'x, y, z'
loop_
 _atom_site_type_symbol
 _atom_site_label
 _atom_site_symmetry_multiplicity
 _atom_site_fract_x
 _atom_site_fract_y
 _atom_site_fract_z
 _atom_site_occupancy
  Tl  Tl0  1  0.85956454  0.85956454  0.66522467  1
  H  H1  1  0.34857956  0.34857956  0.15912368  1
  Br  Br2  1  0.29527907  0.29527907  0.46074911  1
  Cl  Cl3  1  0.37935684  0.37935684  0.96124254  1
