# generated using pymatgen
data_HAuSe
_symmetry_space_group_name_H-M   'P 1'
_cell_length_a   4.33712504
_cell_length_b   5.46734552
_cell_length_c   7.16044813
_cell_angle_alpha   89.97407692
_cell_angle_beta   89.93514690
_cell_angle_gamma   66.93514323
_symmetry_Int_Tables_number   1
_chemical_formula_structural   HAuSe
_chemical_formula_sum   'H2 Au2 Se2'
_cell_volume   156.21958126
_cell_formula_units_Z   2
loop_
 _symmetry_equiv_pos_site_id
 _symmetry_equiv_pos_as_xyz
  1  'x, y, z'
loop_
 _atom_site_type_symbol
 _atom_site_label
 _atom_site_symmetry_multiplicity
 _atom_site_fract_x
 _atom_site_fract_y
 _atom_site_fract_z
 _atom_site_occupancy
  H  H0  1  0.52886534  0.95380566  0.28753837  1
  H  H1  1  0.96135321  0.11880251  0.78752344  1
  Au  Au2  1  0.03978851  0.54166918  0.53735643  1
  Au  Au3  1  0.03977380  0.54169202  0.03723373  1
  Se  Se4  1  0.24257257  0.21130611  0.78729800  1
  Se  Se5  1  0.89970656  0.87301452  0.28730004  1
