# generated using pymatgen
data_NbPbIO6
_symmetry_space_group_name_H-M   'P 1'
_cell_length_a   5.65501642
_cell_length_b   5.65501642
_cell_length_c   5.44428072
_cell_angle_alpha   90.00000000
_cell_angle_beta   90.00000000
_cell_angle_gamma   120.00000000
_symmetry_Int_Tables_number   1
_chemical_formula_structural   NbPbIO6
_chemical_formula_sum   'Nb1 Pb1 I1 O6'
_cell_volume   150.77831391
_cell_formula_units_Z   1
loop_
 _symmetry_equiv_pos_site_id
 _symmetry_equiv_pos_as_xyz
  1  'x, y, z'
loop_
 _atom_site_type_symbol
 _atom_site_label
 _atom_site_symmetry_multiplicity
 _atom_site_fract_x
 _atom_site_fract_y
 _atom_site_fract_z
 _atom_site_occupancy
  Nb  Nb0  1  0.00000000  0.00000000  0.55926009  1
  Pb  Pb1  1  0.66666667  0.33333333  0.98375249  1
  I  I2  1  0.33333333  0.66666667  0.45952252  1
  O  O3  1  0.96730372  0.28044237  0.71204753  1
  O  O4  1  0.09844693  0.75368486  0.28709711  1
  O  O5  1  0.65523793  0.90155307  0.28709711  1
  O  O6  1  0.24631514  0.34476207  0.28709711  1
  O  O7  1  0.71955763  0.68686135  0.71204753  1
  O  O8  1  0.31313865  0.03269628  0.71204753  1
