# generated using pymatgen
data_YHBrCl
_symmetry_space_group_name_H-M   'P 1'
_cell_length_a   3.80694123
_cell_length_b   3.80694123
_cell_length_c   7.68919535
_cell_angle_alpha   75.61064560
_cell_angle_beta   75.61064560
_cell_angle_gamma   60.00033649
_symmetry_Int_Tables_number   1
_chemical_formula_structural   YHBrCl
_chemical_formula_sum   'Y1 H1 Br1 Cl1'
_cell_volume   92.44969692
_cell_formula_units_Z   1
loop_
 _symmetry_equiv_pos_site_id
 _symmetry_equiv_pos_as_xyz
  1  'x, y, z'
loop_
 _atom_site_type_symbol
 _atom_site_label
 _atom_site_symmetry_multiplicity
 _atom_site_fract_x
 _atom_site_fract_y
 _atom_site_fract_z
 _atom_site_occupancy
  Y  Y0  1  0.71814658  0.71814658  0.11635227  1
  H  H1  1  0.38372884  0.38372884  0.11951518  1
  Br  Br2  1  0.96333445  0.96333445  0.37992459  1
  Cl  Cl3  1  0.13037011  0.13037011  0.88074795  1
