# generated using pymatgen
data_YAsO3
_symmetry_space_group_name_H-M   'P 1'
_cell_length_a   4.49500319
_cell_length_b   4.49500319
_cell_length_c   4.49500319
_cell_angle_alpha   86.05675983
_cell_angle_beta   86.05675983
_cell_angle_gamma   86.05675983
_symmetry_Int_Tables_number   1
_chemical_formula_structural   YAsO3
_chemical_formula_sum   'Y1 As1 O3'
_cell_volume   90.20496894
_cell_formula_units_Z   1
loop_
 _symmetry_equiv_pos_site_id
 _symmetry_equiv_pos_as_xyz
  1  'x, y, z'
loop_
 _atom_site_type_symbol
 _atom_site_label
 _atom_site_symmetry_multiplicity
 _atom_site_fract_x
 _atom_site_fract_y
 _atom_site_fract_z
 _atom_site_occupancy
  Y  Y0  1  0.56143900  0.56143900  0.56143900  1
  As  As1  1  0.91327300  0.91327300  0.91327300  1
  O  O2  1  0.64712000  0.64712000  0.07425000  1
  O  O3  1  0.64712000  0.07425000  0.64712000  1
  O  O4  1  0.07425000  0.64712000  0.64712000  1
