# generated using pymatgen
data_Na2TiPbO4
_symmetry_space_group_name_H-M   'P 1'
_cell_length_a   5.41931317
_cell_length_b   6.14365877
_cell_length_c   7.91880972
_cell_angle_alpha   90.00000000
_cell_angle_beta   90.00000000
_cell_angle_gamma   90.00000000
_symmetry_Int_Tables_number   1
_chemical_formula_structural   Na2TiPbO4
_chemical_formula_sum   'Na4 Ti2 Pb2 O8'
_cell_volume   263.65210453
_cell_formula_units_Z   2
loop_
 _symmetry_equiv_pos_site_id
 _symmetry_equiv_pos_as_xyz
  1  'x, y, z'
loop_
 _atom_site_type_symbol
 _atom_site_label
 _atom_site_symmetry_multiplicity
 _atom_site_fract_x
 _atom_site_fract_y
 _atom_site_fract_z
 _atom_site_occupancy
  Na  Na0  1  0.48063546  0.31845407  0.24681013  1
  Na  Na1  1  0.48063546  0.31845407  0.75318987  1
  Na  Na2  1  0.98063546  0.68154593  0.74681013  1
  Na  Na3  1  0.98063546  0.68154593  0.25318987  1
  Ti  Ti4  1  0.50284521  0.83099844  0.50000000  1
  Ti  Ti5  1  0.00284521  0.16900156  0.00000000  1
  Pb  Pb6  1  0.97511482  0.20800154  0.50000000  1
  Pb  Pb7  1  0.47511482  0.79199846  0.00000000  1
  O  O8  1  0.34630279  0.14379109  0.00000000  1
  O  O9  1  0.84630279  0.85620891  0.50000000  1
  O  O10  1  0.38777237  0.11774287  0.50000000  1
  O  O11  1  0.88777237  0.88225713  0.00000000  1
  O  O12  1  0.41331895  0.68787706  0.69192376  1
  O  O13  1  0.91331895  0.31212294  0.19192376  1
  O  O14  1  0.91331895  0.31212294  0.80807624  1
  O  O15  1  0.41331895  0.68787706  0.30807624  1
