# generated using pymatgen
data_Na2TiO3
_symmetry_space_group_name_H-M   'P 1'
_cell_length_a   5.64222743
_cell_length_b   5.64222743
_cell_length_c   5.38516306
_cell_angle_alpha   90.00000000
_cell_angle_beta   90.00000000
_cell_angle_gamma   113.89257036
_symmetry_Int_Tables_number   1
_chemical_formula_structural   Na2TiO3
_chemical_formula_sum   'Na4 Ti2 O6'
_cell_volume   156.74432783
_cell_formula_units_Z   2
loop_
 _symmetry_equiv_pos_site_id
 _symmetry_equiv_pos_as_xyz
  1  'x, y, z'
loop_
 _atom_site_type_symbol
 _atom_site_label
 _atom_site_symmetry_multiplicity
 _atom_site_fract_x
 _atom_site_fract_y
 _atom_site_fract_z
 _atom_site_occupancy
  Na  Na0  1  0.46638267  0.79633544  0.27203185  1
  Na  Na1  1  0.20366456  0.53361733  0.77203185  1
  Na  Na2  1  0.53361733  0.20366456  0.77203185  1
  Na  Na3  1  0.79633544  0.46638267  0.27203185  1
  Ti  Ti4  1  0.09521493  0.09521493  0.23350879  1
  Ti  Ti5  1  0.90478507  0.90478507  0.73350879  1
  O  O6  1  0.17890888  0.90766125  0.50844699  1
  O  O7  1  0.09233875  0.82109112  0.00844699  1
  O  O8  1  0.63026681  0.63026681  0.63766355  1
  O  O9  1  0.36973319  0.36973319  0.13766355  1
  O  O10  1  0.82109112  0.09233875  0.00844699  1
  O  O11  1  0.90766125  0.17890888  0.50844699  1
