# generated using pymatgen
data_YHICl
_symmetry_space_group_name_H-M   'P 1'
_cell_length_a   3.89238851
_cell_length_b   3.89238851
_cell_length_c   8.08612355
_cell_angle_alpha   75.96761717
_cell_angle_beta   75.96761717
_cell_angle_gamma   59.99913952
_symmetry_Int_Tables_number   1
_chemical_formula_structural   YHICl
_chemical_formula_sum   'Y1 H1 I1 Cl1'
_cell_volume   101.85293865
_cell_formula_units_Z   1
loop_
 _symmetry_equiv_pos_site_id
 _symmetry_equiv_pos_as_xyz
  1  'x, y, z'
loop_
 _atom_site_type_symbol
 _atom_site_label
 _atom_site_symmetry_multiplicity
 _atom_site_fract_x
 _atom_site_fract_y
 _atom_site_fract_z
 _atom_site_occupancy
  Y  Y0  1  0.27866130  0.27866130  0.89302775  1
  H  H1  1  0.61451395  0.61451395  0.88557371  1
  I  I2  1  0.03930144  0.03930144  0.61325157  1
  Cl  Cl3  1  0.87194331  0.87194331  0.11160697  1
