# generated using pymatgen
data_Na2LiNbO4
_symmetry_space_group_name_H-M   'P 1'
_cell_length_a   5.72213752
_cell_length_b   5.72213752
_cell_length_c   5.72213752
_cell_angle_alpha   126.26110005
_cell_angle_beta   126.26110005
_cell_angle_gamma   79.45942764
_symmetry_Int_Tables_number   1
_chemical_formula_structural   Na2LiNbO4
_chemical_formula_sum   'Na2 Li1 Nb1 O4'
_cell_volume   117.73295816
_cell_formula_units_Z   1
loop_
 _symmetry_equiv_pos_site_id
 _symmetry_equiv_pos_as_xyz
  1  'x, y, z'
loop_
 _atom_site_type_symbol
 _atom_site_label
 _atom_site_symmetry_multiplicity
 _atom_site_fract_x
 _atom_site_fract_y
 _atom_site_fract_z
 _atom_site_occupancy
  Na  Na0  1  0.25000000  0.75000000  0.50000000  1
  Na  Na1  1  0.00000000  0.00000000  0.00000000  1
  Li  Li2  1  0.50000000  0.50000000  0.00000000  1
  Nb  Nb3  1  0.75000000  0.25000000  0.50000000  1
  O  O4  1  0.63638748  0.18340575  0.07783731  1
  O  O5  1  0.81659425  0.89443156  0.45298173  1
  O  O6  1  0.44144983  0.36361252  0.54701827  1
  O  O7  1  0.10556844  0.55855017  0.92216269  1
