# generated using pymatgen
data_NaHfNO
_symmetry_space_group_name_H-M   'P 1'
_cell_length_a   3.22468854
_cell_length_b   3.22468854
_cell_length_c   6.10556072
_cell_angle_alpha   74.73981220
_cell_angle_beta   74.73981220
_cell_angle_gamma   60.00047610
_symmetry_Int_Tables_number   1
_chemical_formula_structural   NaHfNO
_chemical_formula_sum   'Na1 Hf1 N1 O1'
_cell_volume   52.38280031
_cell_formula_units_Z   1
loop_
 _symmetry_equiv_pos_site_id
 _symmetry_equiv_pos_as_xyz
  1  'x, y, z'
loop_
 _atom_site_type_symbol
 _atom_site_label
 _atom_site_symmetry_multiplicity
 _atom_site_fract_x
 _atom_site_fract_y
 _atom_site_fract_z
 _atom_site_occupancy
  Na  Na0  1  0.60612435  0.60612435  0.35629518  1
  Hf  Hf1  1  0.42950474  0.42950474  0.88458588  1
  N  N2  1  0.03849370  0.03849370  0.05830290  1
  O  O3  1  0.83407380  0.83407380  0.67047605  1
