# generated using pymatgen
data_BaLi2TiO4
_symmetry_space_group_name_H-M   'P 1'
_cell_length_a   5.32751523
_cell_length_b   5.32751523
_cell_length_c   5.32751523
_cell_angle_alpha   117.84495391
_cell_angle_beta   117.84495391
_cell_angle_gamma   93.77502367
_symmetry_Int_Tables_number   1
_chemical_formula_structural   BaLi2TiO4
_chemical_formula_sum   'Ba1 Li2 Ti1 O4'
_cell_volume   110.14418262
_cell_formula_units_Z   1
loop_
 _symmetry_equiv_pos_site_id
 _symmetry_equiv_pos_as_xyz
  1  'x, y, z'
loop_
 _atom_site_type_symbol
 _atom_site_label
 _atom_site_symmetry_multiplicity
 _atom_site_fract_x
 _atom_site_fract_y
 _atom_site_fract_z
 _atom_site_occupancy
  Ba  Ba0  1  0.50000000  0.50000000  -0.00000000  1
  Li  Li1  1  0.25000000  0.75000000  0.50000000  1
  Li  Li2  1  0.75000000  0.25000000  0.50000000  1
  Ti  Ti3  1  0.00000000  0.00000000  0.00000000  1
  O  O4  1  0.03821799  0.65872579  0.00000000  1
  O  O5  1  0.96178201  0.96178201  0.62050780  1
  O  O6  1  0.34127421  0.34127421  0.37949220  1
  O  O7  1  0.65872579  0.03821799  -0.00000000  1
