# generated using pymatgen
data_SiNCl
_symmetry_space_group_name_H-M   'P 1'
_cell_length_a   4.90976331
_cell_length_b   5.53366163
_cell_length_c   8.57466260
_cell_angle_alpha   90.00000000
_cell_angle_beta   90.00000000
_cell_angle_gamma   90.00000000
_symmetry_Int_Tables_number   1
_chemical_formula_structural   SiNCl
_chemical_formula_sum   'Si4 N4 Cl4'
_cell_volume   232.96474100
_cell_formula_units_Z   4
loop_
 _symmetry_equiv_pos_site_id
 _symmetry_equiv_pos_as_xyz
  1  'x, y, z'
loop_
 _atom_site_type_symbol
 _atom_site_label
 _atom_site_symmetry_multiplicity
 _atom_site_fract_x
 _atom_site_fract_y
 _atom_site_fract_z
 _atom_site_occupancy
  Si  Si0  1  0.00609189  0.09651279  0.07761938  1
  Si  Si1  1  0.50609189  0.90348721  0.92238062  1
  Si  Si2  1  0.00609189  0.59651279  0.92238062  1
  Si  Si3  1  0.50609189  0.40348721  0.07761938  1
  N  N4  1  0.16192225  0.37202016  0.03425360  1
  N  N5  1  0.66192225  0.62797984  0.96574640  1
  N  N6  1  0.16192225  0.87202016  0.96574640  1
  N  N7  1  0.66192225  0.12797984  0.03425360  1
  Cl  Cl8  1  0.06098685  0.01366711  0.30775635  1
  Cl  Cl9  1  0.56098685  0.98633289  0.69224365  1
  Cl  Cl10  1  0.06098685  0.51366711  0.69224365  1
  Cl  Cl11  1  0.56098685  0.48633289  0.30775635  1
