# generated using pymatgen
data_H3Cl
_symmetry_space_group_name_H-M   'P 1'
_cell_length_a   4.95865605
_cell_length_b   3.80866819
_cell_length_c   3.96168002
_cell_angle_alpha   86.58508196
_cell_angle_beta   90.00000000
_cell_angle_gamma   90.00000000
_symmetry_Int_Tables_number   1
_chemical_formula_structural   H3Cl
_chemical_formula_sum   'H3 Cl1'
_cell_volume   74.68694230
_cell_formula_units_Z   1
loop_
 _symmetry_equiv_pos_site_id
 _symmetry_equiv_pos_as_xyz
  1  'x, y, z'
loop_
 _atom_site_type_symbol
 _atom_site_label
 _atom_site_symmetry_multiplicity
 _atom_site_fract_x
 _atom_site_fract_y
 _atom_site_fract_z
 _atom_site_occupancy
  H  H0  1  0.50000000  0.92933873  0.14672045  1
  H  H1  1  0.00000000  0.26347522  0.36649647  1
  H  H2  1  0.00000000  0.11692964  0.50202504  1
  Cl  Cl3  1  0.50000000  0.69025041  0.92963804  1
