# generated using pymatgen
data_ScTlSnF6
_symmetry_space_group_name_H-M   'P 1'
_cell_length_a   5.33834576
_cell_length_b   6.07047296
_cell_length_c   6.07975727
_cell_angle_alpha   60.06100464
_cell_angle_beta   89.93129182
_cell_angle_gamma   89.88345315
_symmetry_Int_Tables_number   1
_chemical_formula_structural   ScTlSnF6
_chemical_formula_sum   'Sc1 Tl1 Sn1 F6'
_cell_volume   170.73078414
_cell_formula_units_Z   1
loop_
 _symmetry_equiv_pos_site_id
 _symmetry_equiv_pos_as_xyz
  1  'x, y, z'
loop_
 _atom_site_type_symbol
 _atom_site_label
 _atom_site_symmetry_multiplicity
 _atom_site_fract_x
 _atom_site_fract_y
 _atom_site_fract_z
 _atom_site_occupancy
  Sc  Sc0  1  0.48895210  0.66665773  0.66691513  1
  Tl  Tl1  1  0.03592150  0.99975668  0.00014930  1
  Sn  Sn2  1  0.54791255  0.33349886  0.33328637  1
  F  F3  1  0.69000393  0.90556205  0.36175503  1
  F  F4  1  0.28527027  0.55702683  0.44187330  1
  F  F5  1  0.28560372  0.44245321  0.00156366  1
  F  F6  1  0.28575787  0.00234958  0.55684517  1
  F  F7  1  0.69101824  0.73223498  0.90544736  1
  F  F8  1  0.68964882  0.36069658  0.73197826  1
