# generated using pymatgen
data_NaAlO2
_symmetry_space_group_name_H-M   'P 1'
_cell_length_a   5.38712000
_cell_length_b   7.03203000
_cell_length_c   5.21798000
_cell_angle_alpha   90.00000000
_cell_angle_beta   90.00000000
_cell_angle_gamma   90.00000000
_symmetry_Int_Tables_number   1
_chemical_formula_structural   NaAlO2
_chemical_formula_sum   'Na4 Al4 O8'
_cell_volume   197.66955052
_cell_formula_units_Z   4
loop_
 _symmetry_equiv_pos_site_id
 _symmetry_equiv_pos_as_xyz
  1  'x, y, z'
loop_
 _atom_site_type_symbol
 _atom_site_label
 _atom_site_symmetry_multiplicity
 _atom_site_fract_x
 _atom_site_fract_y
 _atom_site_fract_z
 _atom_site_occupancy
  Na  Na0  1  0.43363000  0.12415000  0.48150000  1.0
  Na  Na1  1  0.06637000  0.62415000  0.98150000  1.0
  Na  Na2  1  0.56637000  0.87585000  0.98150000  1.0
  Na  Na3  1  0.93363000  0.37585000  0.48150000  1.0
  Al  Al4  1  0.56101000  0.37487000  0.00000000  1.0
  Al  Al5  1  0.43899000  0.62513000  0.50000000  1.0
  Al  Al6  1  0.93899000  0.87487000  0.50000000  1.0
  Al  Al7  1  0.06101000  0.12513000  0.00000000  1.0
  O  O8  1  0.87630000  0.32530000  0.93300000  1.0
  O  O9  1  0.12370000  0.67470000  0.43300000  1.0
  O  O10  1  0.62370000  0.82530000  0.43300000  1.0
  O  O11  1  0.37630000  0.17470000  0.93300000  1.0
  O  O12  1  0.53060000  0.42400000  0.32990000  1.0
  O  O13  1  0.03060000  0.07600000  0.32990000  1.0
  O  O14  1  0.96940000  0.92400000  0.82990000  1.0
  O  O15  1  0.46940000  0.57600000  0.82990000  1.0
