# generated using pymatgen
data_CaY2HfO6
_symmetry_space_group_name_H-M   'P 1'
_cell_length_a   6.01414171
_cell_length_b   6.01414171
_cell_length_c   6.01414171
_cell_angle_alpha   56.90984879
_cell_angle_beta   56.90984879
_cell_angle_gamma   56.90984879
_symmetry_Int_Tables_number   1
_chemical_formula_structural   CaY2HfO6
_chemical_formula_sum   'Ca1 Y2 Hf1 O6'
_cell_volume   142.85293065
_cell_formula_units_Z   1
loop_
 _symmetry_equiv_pos_site_id
 _symmetry_equiv_pos_as_xyz
  1  'x, y, z'
loop_
 _atom_site_type_symbol
 _atom_site_label
 _atom_site_symmetry_multiplicity
 _atom_site_fract_x
 _atom_site_fract_y
 _atom_site_fract_z
 _atom_site_occupancy
  Ca  Ca0  1  0.19520974  0.19520974  0.19520974  1
  Y  Y1  1  0.47354032  0.47354032  0.47354032  1
  Y  Y2  1  0.97652108  0.97652108  0.97652108  1
  Hf  Hf3  1  0.68500153  0.68500153  0.68500153  1
  O  O4  1  0.40883303  0.05082982  0.78319491  1
  O  O5  1  0.78319491  0.40883303  0.05082982  1
  O  O6  1  0.05082982  0.78319491  0.40883303  1
  O  O7  1  0.59463341  0.86333993  0.30739312  1
  O  O8  1  0.30739312  0.59463341  0.86333993  1
  O  O9  1  0.86333993  0.30739312  0.59463341  1
