# generated using pymatgen
data_GaPO4
_symmetry_space_group_name_H-M   'P 1'
_cell_length_a   4.89631790
_cell_length_b   4.89631790
_cell_length_c   11.08969510
_cell_angle_alpha   90.00000000
_cell_angle_beta   90.00000000
_cell_angle_gamma   120.00000000
_symmetry_Int_Tables_number   1
_chemical_formula_structural   GaPO4
_chemical_formula_sum   'Ga3 P3 O12'
_cell_volume   230.24459919
_cell_formula_units_Z   3
loop_
 _symmetry_equiv_pos_site_id
 _symmetry_equiv_pos_as_xyz
  1  'x, y, z'
loop_
 _atom_site_type_symbol
 _atom_site_label
 _atom_site_symmetry_multiplicity
 _atom_site_fract_x
 _atom_site_fract_y
 _atom_site_fract_z
 _atom_site_occupancy
  Ga  Ga0  1  0.54467265  0.54467265  0.50000000  1
  Ga  Ga1  1  -0.00000000  0.45532735  0.16666667  1
  Ga  Ga2  1  0.45532735  -0.00000000  0.83333333  1
  P  P3  1  0.54515895  0.54515895  -0.00000000  1
  P  P4  1  -0.00000000  0.45484105  0.66666667  1
  P  P5  1  0.45484105  -0.00000000  0.33333333  1
  O  O6  1  0.27423131  0.40763470  0.62890350  1
  O  O7  1  0.59236530  0.86659661  0.96223683  1
  O  O8  1  0.13340339  0.72576869  0.29557017  1
  O  O9  1  0.86659661  0.59236530  0.03776317  1
  O  O10  1  0.72576869  0.13340339  0.70442983  1
  O  O11  1  0.40763470  0.27423131  0.37109650  1
  O  O12  1  0.40833729  0.32110522  0.89226470  1
  O  O13  1  0.67889478  0.08723207  0.22559803  1
  O  O14  1  0.91276793  0.59166271  0.55893137  1
  O  O15  1  0.08723207  0.67889478  0.77440197  1
  O  O16  1  0.59166271  0.91276793  0.44106863  1
  O  O17  1  0.32110522  0.40833729  0.10773530  1
