# generated using pymatgen
data_Li2SnPbCl6
_symmetry_space_group_name_H-M   'P 1'
_cell_length_a   6.98591259
_cell_length_b   6.98821251
_cell_length_c   7.29608762
_cell_angle_alpha   61.38958497
_cell_angle_beta   61.39772571
_cell_angle_gamma   60.01207690
_symmetry_Int_Tables_number   1
_chemical_formula_structural   Li2SnPbCl6
_chemical_formula_sum   'Li2 Sn1 Pb1 Cl6'
_cell_volume   257.06309043
_cell_formula_units_Z   1
loop_
 _symmetry_equiv_pos_site_id
 _symmetry_equiv_pos_as_xyz
  1  'x, y, z'
loop_
 _atom_site_type_symbol
 _atom_site_label
 _atom_site_symmetry_multiplicity
 _atom_site_fract_x
 _atom_site_fract_y
 _atom_site_fract_z
 _atom_site_occupancy
  Li  Li0  1  0.48100875  0.48113772  0.55684056  1
  Li  Li1  1  0.98875631  0.98864747  0.03389654  1
  Sn  Sn2  1  0.68281285  0.68276900  0.95152727  1
  Pb  Pb3  1  0.18712461  0.18699884  0.43882108  1
  Cl  Cl4  1  0.34255852  0.14549751  0.75360593  1
  Cl  Cl5  1  0.75854582  0.34253339  0.75349176  1
  Cl  Cl6  1  0.14540689  0.75852471  0.75358207  1
  Cl  Cl7  1  0.64748395  0.84076703  0.24766339  1
  Cl  Cl8  1  0.26389148  0.64749943  0.24773343  1
  Cl  Cl9  1  0.84081382  0.26402391  0.24763697  1
