# generated using pymatgen
data_H3S2
_symmetry_space_group_name_H-M   'P 1'
_cell_length_a   4.85050448
_cell_length_b   6.45027407
_cell_length_c   6.84704193
_cell_angle_alpha   75.94775912
_cell_angle_beta   83.02041731
_cell_angle_gamma   79.76531642
_symmetry_Int_Tables_number   1
_chemical_formula_structural   H3S2
_chemical_formula_sum   'H6 S4'
_cell_volume   203.81623181
_cell_formula_units_Z   2
loop_
 _symmetry_equiv_pos_site_id
 _symmetry_equiv_pos_as_xyz
  1  'x, y, z'
loop_
 _atom_site_type_symbol
 _atom_site_label
 _atom_site_symmetry_multiplicity
 _atom_site_fract_x
 _atom_site_fract_y
 _atom_site_fract_z
 _atom_site_occupancy
  H  H0  1  0.77297142  0.38170385  0.12652510  1
  H  H1  1  0.49366647  0.42748889  0.67234502  1
  H  H2  1  0.63431726  0.84901684  0.48375634  1
  H  H3  1  0.37212369  0.14161217  0.77163803  1
  H  H4  1  0.03204125  0.13600736  0.46728359  1
  H  H5  1  0.17341497  0.39749586  0.07005808  1
  S  S6  1  0.55975328  0.24943446  0.82240331  1
  S  S7  1  0.40612189  0.80130796  0.41458530  1
  S  S8  1  0.96232399  0.46569221  0.20134909  1
  S  S9  1  0.09326677  0.94023941  0.60005712  1
