# generated using pymatgen
data_NaAg(PbBr3)2
_symmetry_space_group_name_H-M   'P 1'
_cell_length_a   7.56869438
_cell_length_b   7.58063474
_cell_length_c   8.05588440
_cell_angle_alpha   90.05724749
_cell_angle_beta   117.94633265
_cell_angle_gamma   119.87579591
_symmetry_Int_Tables_number   1
_chemical_formula_structural   NaAg(PbBr3)2
_chemical_formula_sum   'Na1 Ag1 Pb2 Br6'
_cell_volume   337.05887337
_cell_formula_units_Z   1
loop_
 _symmetry_equiv_pos_site_id
 _symmetry_equiv_pos_as_xyz
  1  'x, y, z'
loop_
 _atom_site_type_symbol
 _atom_site_label
 _atom_site_symmetry_multiplicity
 _atom_site_fract_x
 _atom_site_fract_y
 _atom_site_fract_z
 _atom_site_occupancy
  Na  Na0  1  0.36244785  0.18123000  0.54428401  1
  Ag  Ag1  1  0.36709355  0.68314701  0.04913163  1
  Pb  Pb2  1  0.97183563  0.48595679  0.45779384  1
  Pb  Pb3  1  0.97122657  0.98610492  0.95688954  1
  Br  Br4  1  0.84792295  0.06152159  0.24954876  1
  Br  Br5  1  0.46149470  0.40040552  0.24807793  1
  Br  Br6  1  0.18796997  0.78627586  0.24784462  1
  Br  Br7  1  0.18416885  0.89257030  0.75348757  1
  Br  Br8  1  0.46246958  0.56974261  0.75508981  1
  Br  Br9  1  0.86016837  0.29144440  0.75305330  1
