# generated using pymatgen
data_CsNaSiF6
_symmetry_space_group_name_H-M   'P 1'
_cell_length_a   5.63415292
_cell_length_b   5.63415292
_cell_length_c   6.10183625
_cell_angle_alpha   89.99054773
_cell_angle_beta   89.99054773
_cell_angle_gamma   120.02935635
_symmetry_Int_Tables_number   1
_chemical_formula_structural   CsNaSiF6
_chemical_formula_sum   'Cs1 Na1 Si1 F6'
_cell_volume   167.69490619
_cell_formula_units_Z   1
loop_
 _symmetry_equiv_pos_site_id
 _symmetry_equiv_pos_as_xyz
  1  'x, y, z'
loop_
 _atom_site_type_symbol
 _atom_site_label
 _atom_site_symmetry_multiplicity
 _atom_site_fract_x
 _atom_site_fract_y
 _atom_site_fract_z
 _atom_site_occupancy
  Cs  Cs0  1  0.99999920  0.00000080  0.00000000  1
  Na  Na1  1  0.33341021  0.66658979  0.50000000  1
  Si  Si2  1  0.66664834  0.33335167  0.50000000  1
  F  F3  1  0.92137312  0.34309431  0.66266350  1
  F  F4  1  0.65690569  0.07862688  0.33733650  1
  F  F5  1  0.42176482  0.34326645  0.33732712  1
  F  F6  1  0.92173372  0.57861595  0.33751574  1
  F  F7  1  0.65673355  0.57823518  0.66267288  1
  F  F8  1  0.42138405  0.07826628  0.66248426  1
