# generated using pymatgen
data_CsKSiF6
_symmetry_space_group_name_H-M   'P 1'
_cell_length_a   6.16594254
_cell_length_b   6.16594254
_cell_length_c   5.60187425
_cell_angle_alpha   90.00000000
_cell_angle_beta   90.00000000
_cell_angle_gamma   120.00000000
_symmetry_Int_Tables_number   1
_chemical_formula_structural   CsKSiF6
_chemical_formula_sum   'Cs1 K1 Si1 F6'
_cell_volume   184.44332126
_cell_formula_units_Z   1
loop_
 _symmetry_equiv_pos_site_id
 _symmetry_equiv_pos_as_xyz
  1  'x, y, z'
loop_
 _atom_site_type_symbol
 _atom_site_label
 _atom_site_symmetry_multiplicity
 _atom_site_fract_x
 _atom_site_fract_y
 _atom_site_fract_z
 _atom_site_occupancy
  Cs  Cs0  1  0.33333333  0.66666667  0.00000000  1
  K  K1  1  0.66666667  0.33333333  0.50000000  1
  Si  Si2  1  -0.00000000  0.00000000  0.50000000  1
  F  F3  1  0.77174168  0.77059329  0.67695778  1
  F  F4  1  0.22940671  0.00114840  0.67695778  1
  F  F5  1  0.99885160  0.22825832  0.67695778  1
  F  F6  1  0.22940671  0.22825832  0.32304222  1
  F  F7  1  0.77174168  0.00114840  0.32304222  1
  F  F8  1  0.99885160  0.77059329  0.32304222  1
