# generated using pymatgen
data_K2AlGaTe4
_symmetry_space_group_name_H-M   'P 1'
_cell_length_a   7.36804332
_cell_length_b   7.36948579
_cell_length_c   7.37032212
_cell_angle_alpha   115.05803990
_cell_angle_beta   115.05397840
_cell_angle_gamma   98.78860518
_symmetry_Int_Tables_number   1
_chemical_formula_structural   K2AlGaTe4
_chemical_formula_sum   'K2 Al1 Ga1 Te4'
_cell_volume   300.31900084
_cell_formula_units_Z   1
loop_
 _symmetry_equiv_pos_site_id
 _symmetry_equiv_pos_as_xyz
  1  'x, y, z'
loop_
 _atom_site_type_symbol
 _atom_site_label
 _atom_site_symmetry_multiplicity
 _atom_site_fract_x
 _atom_site_fract_y
 _atom_site_fract_z
 _atom_site_occupancy
  K  K0  1  0.01422365  0.51421289  0.49996128  1
  K  K1  1  0.76433929  0.76429673  0.00003640  1
  Al  Al2  1  0.51408779  0.01404587  0.49996461  1
  Ga  Ga3  1  0.26417099  0.26417500  0.00002436  1
  Te  Te4  1  0.38517668  0.97201927  0.08583891  1
  Te  Te5  1  0.55606786  0.64191579  0.41321712  1
  Te  Te6  1  0.22875965  0.14293883  0.58685232  1
  Te  Te7  1  0.88612409  0.29934663  0.91410800  1
