# generated using pymatgen
data_Ba(AsS2)2
_symmetry_space_group_name_H-M   'P 1'
_cell_length_a   6.47548289
_cell_length_b   6.47574878
_cell_length_c   10.45309641
_cell_angle_alpha   73.35452931
_cell_angle_beta   73.37813240
_cell_angle_gamma   80.75241795
_symmetry_Int_Tables_number   1
_chemical_formula_structural   Ba(AsS2)2
_chemical_formula_sum   'Ba2 As4 S8'
_cell_volume   400.93509734
_cell_formula_units_Z   2
loop_
 _symmetry_equiv_pos_site_id
 _symmetry_equiv_pos_as_xyz
  1  'x, y, z'
loop_
 _atom_site_type_symbol
 _atom_site_label
 _atom_site_symmetry_multiplicity
 _atom_site_fract_x
 _atom_site_fract_y
 _atom_site_fract_z
 _atom_site_occupancy
  Ba  Ba0  1  0.72241377  0.20911440  0.56254685  1
  Ba  Ba1  1  0.95879191  0.97242145  0.06273275  1
  As  As2  1  0.45756607  0.60530281  0.79396107  1
  As  As3  1  0.01674416  0.58168475  0.68174700  1
  As  As4  1  0.33137686  0.26613704  0.18175157  1
  As  As5  1  0.35487816  0.70693059  0.29421720  1
  S  S6  1  0.10742272  0.00470069  0.33635442  1
  S  S7  1  0.61284788  0.24456065  0.26447399  1
  S  S8  1  0.48286490  0.85622068  0.07120615  1
  S  S9  1  0.27220816  0.32727032  0.78972020  1
  S  S10  1  0.99447217  0.86302440  0.76465601  1
  S  S11  1  0.07696040  0.52186337  0.28965515  1
  S  S12  1  0.60633083  0.73319560  0.57090831  1
  S  S13  1  0.75512100  0.35757626  0.83607033  1
