# generated using pymatgen
data_LiCdBO3
_symmetry_space_group_name_H-M   'P 1'
_cell_length_a   8.32400000
_cell_length_b   8.32400000
_cell_length_c   3.26380000
_cell_angle_alpha   90.00000000
_cell_angle_beta   90.00000000
_cell_angle_gamma   120.00000000
_symmetry_Int_Tables_number   1
_chemical_formula_structural   LiCdBO3
_chemical_formula_sum   'Li3 Cd3 B3 O9'
_cell_volume   195.84762659
_cell_formula_units_Z   3
loop_
 _symmetry_equiv_pos_site_id
 _symmetry_equiv_pos_as_xyz
  1  'x, y, z'
loop_
 _atom_site_type_symbol
 _atom_site_label
 _atom_site_symmetry_multiplicity
 _atom_site_fract_x
 _atom_site_fract_y
 _atom_site_fract_z
 _atom_site_occupancy
  Li  Li0  1  0.28100000  0.99200000  0.50000000  1.0
  Li  Li1  1  0.71100000  0.71900000  0.50000000  1.0
  Li  Li2  1  0.00800000  0.28900000  0.50000000  1.0
  Cd  Cd3  1  0.63050000  0.99340000  0.00000000  1.0
  Cd  Cd4  1  0.00660000  0.63710000  0.00000000  1.0
  Cd  Cd5  1  0.36290000  0.36950000  0.00000000  1.0
  B  B6  1  0.00000000  0.00000000  0.00000000  1.0
  B  B7  1  0.66666667  0.33333333  0.50000000  1.0
  B  B8  1  0.33333333  0.66666667  0.50000000  1.0
  O  O9  1  0.18900000  0.06300000  0.00000000  1.0
  O  O10  1  0.93700000  0.12600000  0.00000000  1.0
  O  O11  1  0.87400000  0.81100000  0.00000000  1.0
  O  O12  1  0.24800000  0.47400000  0.50000000  1.0
  O  O13  1  0.22600000  0.75200000  0.50000000  1.0
  O  O14  1  0.52600000  0.77400000  0.50000000  1.0
  O  O15  1  0.57600000  0.43500000  0.50000000  1.0
  O  O16  1  0.85900000  0.42400000  0.50000000  1.0
  O  O17  1  0.56500000  0.14100000  0.50000000  1.0
