# generated using pymatgen
data_KClO3
_symmetry_space_group_name_H-M   'P 1'
_cell_length_a   7.30527535
_cell_length_b   7.30527535
_cell_length_c   7.30527535
_cell_angle_alpha   90.00000000
_cell_angle_beta   90.00000000
_cell_angle_gamma   90.00000000
_symmetry_Int_Tables_number   1
_chemical_formula_structural   KClO3
_chemical_formula_sum   'K4 Cl4 O12'
_cell_volume   389.86097982
_cell_formula_units_Z   4
loop_
 _symmetry_equiv_pos_site_id
 _symmetry_equiv_pos_as_xyz
  1  'x, y, z'
loop_
 _atom_site_type_symbol
 _atom_site_label
 _atom_site_symmetry_multiplicity
 _atom_site_fract_x
 _atom_site_fract_y
 _atom_site_fract_z
 _atom_site_occupancy
  K  K0  1  0.19046824  0.30953176  0.69046824  1
  K  K1  1  0.30953176  0.69046824  0.19046824  1
  K  K2  1  0.80953176  0.80953176  0.80953176  1
  K  K3  1  0.69046824  0.19046824  0.30953176  1
  Cl  Cl4  1  0.32090351  0.82090351  0.67909649  1
  Cl  Cl5  1  0.82090351  0.67909649  0.32090351  1
  Cl  Cl6  1  0.67909649  0.32090351  0.82090351  1
  Cl  Cl7  1  0.17909649  0.17909649  0.17909649  1
  O  O8  1  0.17207972  0.92982565  0.77166644  1
  O  O9  1  0.27166644  0.32792028  0.07017435  1
  O  O10  1  0.82792028  0.42982565  0.72833356  1
  O  O11  1  0.77166644  0.17207972  0.92982565  1
  O  O12  1  0.22833356  0.67207972  0.57017435  1
  O  O13  1  0.92982565  0.77166644  0.17207972  1
  O  O14  1  0.42982565  0.72833356  0.82792028  1
  O  O15  1  0.67207972  0.57017435  0.22833356  1
  O  O16  1  0.57017435  0.22833356  0.67207972  1
  O  O17  1  0.72833356  0.82792028  0.42982565  1
  O  O18  1  0.07017435  0.27166644  0.32792028  1
  O  O19  1  0.32792028  0.07017435  0.27166644  1
