# generated using pymatgen
data_LiTlBr2
_symmetry_space_group_name_H-M   'P 1'
_cell_length_a   6.94453408
_cell_length_b   6.94453408
_cell_length_c   6.94453408
_cell_angle_alpha   114.05020875
_cell_angle_beta   114.05020875
_cell_angle_gamma   100.65681411
_symmetry_Int_Tables_number   1
_chemical_formula_structural   LiTlBr2
_chemical_formula_sum   'Li2 Tl2 Br4'
_cell_volume   253.34018569
_cell_formula_units_Z   2
loop_
 _symmetry_equiv_pos_site_id
 _symmetry_equiv_pos_as_xyz
  1  'x, y, z'
loop_
 _atom_site_type_symbol
 _atom_site_label
 _atom_site_symmetry_multiplicity
 _atom_site_fract_x
 _atom_site_fract_y
 _atom_site_fract_z
 _atom_site_occupancy
  Li  Li0  1  0.50000000  0.50000000  -0.00000000  1
  Li  Li1  1  0.25000000  0.75000000  0.50000000  1
  Tl  Tl2  1  0.00000000  0.00000000  0.00000000  1
  Tl  Tl3  1  0.75000000  0.25000000  0.50000000  1
  Br  Br4  1  0.20206832  0.62500000  0.07706832  1
  Br  Br5  1  0.54793168  0.12500000  0.92293168  1
  Br  Br6  1  0.87500000  0.79793168  0.42293168  1
  Br  Br7  1  0.37500000  0.45206832  0.57706832  1
