# generated using pymatgen
data_KNa2ScF6
_symmetry_space_group_name_H-M   'P 1'
_cell_length_a   5.88558557
_cell_length_b   5.88695641
_cell_length_c   6.26598172
_cell_angle_alpha   90.01371384
_cell_angle_beta   118.00254441
_cell_angle_gamma   119.99022305
_symmetry_Int_Tables_number   1
_chemical_formula_structural   KNa2ScF6
_chemical_formula_sum   'K1 Na2 Sc1 F6'
_cell_volume   157.99435070
_cell_formula_units_Z   1
loop_
 _symmetry_equiv_pos_site_id
 _symmetry_equiv_pos_as_xyz
  1  'x, y, z'
loop_
 _atom_site_type_symbol
 _atom_site_label
 _atom_site_symmetry_multiplicity
 _atom_site_fract_x
 _atom_site_fract_y
 _atom_site_fract_z
 _atom_site_occupancy
  K  K0  1  0.38999556  0.19495929  0.58507065  1
  Na  Na1  1  0.94596591  0.47302019  0.41895597  1
  Na  Na2  1  0.97043687  0.98530979  0.95564107  1
  Sc  Sc3  1  0.35555218  0.67775835  0.03334061  1
  F  F4  1  0.79019580  0.03789603  0.22637853  1
  F  F5  1  0.47409959  0.43610694  0.22628785  1
  F  F6  1  0.18824809  0.75221427  0.22634463  1
  F  F7  1  0.15070459  0.83967837  0.78111092  1
  F  F8  1  0.47020071  0.63045797  0.78106598  1
  F  F9  1  0.94139871  0.31099782  0.78100479  1
