# generated using pymatgen
data_Li4Cl3F
_symmetry_space_group_name_H-M   'P 1'
_cell_length_a   5.91751886
_cell_length_b   6.49393707
_cell_length_c   7.46379311
_cell_angle_alpha   90.00000000
_cell_angle_beta   90.00000000
_cell_angle_gamma   90.00000000
_symmetry_Int_Tables_number   1
_chemical_formula_structural   Li4Cl3F
_chemical_formula_sum   'Li8 Cl6 F2'
_cell_volume   286.81860497
_cell_formula_units_Z   2
loop_
 _symmetry_equiv_pos_site_id
 _symmetry_equiv_pos_as_xyz
  1  'x, y, z'
loop_
 _atom_site_type_symbol
 _atom_site_label
 _atom_site_symmetry_multiplicity
 _atom_site_fract_x
 _atom_site_fract_y
 _atom_site_fract_z
 _atom_site_occupancy
  Li  Li0  1  0.10389832  0.88740784  0.00000000  1
  Li  Li1  1  0.67849230  0.17776856  0.00000000  1
  Li  Li2  1  0.10290878  0.31436373  0.21771314  1
  Li  Li3  1  0.60290878  0.68563627  0.28228686  1
  Li  Li4  1  0.17849230  0.82223144  0.50000000  1
  Li  Li5  1  0.60389832  0.11259216  0.50000000  1
  Li  Li6  1  0.60290878  0.68563627  0.71771314  1
  Li  Li7  1  0.10290878  0.31436373  0.78228686  1
  Cl  Cl8  1  0.50898155  0.84891582  0.00000000  1
  Cl  Cl9  1  0.00724390  0.67141025  0.24755908  1
  Cl  Cl10  1  0.50724390  0.32858975  0.25244092  1
  Cl  Cl11  1  0.00898155  0.15108418  0.50000000  1
  Cl  Cl12  1  0.50724390  0.32858975  0.74755908  1
  Cl  Cl13  1  0.00724390  0.67141025  0.75244092  1
  F  F14  1  0.00358846  0.17329510  0.00000000  1
  F  F15  1  0.50358846  0.82670490  0.50000000  1
