# generated using pymatgen
data_As2SO6
_symmetry_space_group_name_H-M   'P 1'
_cell_length_a   5.65500000
_cell_length_b   11.54000000
_cell_length_c   4.79500000
_cell_angle_alpha   90.00000000
_cell_angle_beta   90.00000000
_cell_angle_gamma   90.00000000
_symmetry_Int_Tables_number   1
_chemical_formula_structural   As2SO6
_chemical_formula_sum   'As4 S2 O12'
_cell_volume   312.91546650
_cell_formula_units_Z   2
loop_
 _symmetry_equiv_pos_site_id
 _symmetry_equiv_pos_as_xyz
  1  'x, y, z'
loop_
 _atom_site_type_symbol
 _atom_site_label
 _atom_site_symmetry_multiplicity
 _atom_site_fract_x
 _atom_site_fract_y
 _atom_site_fract_z
 _atom_site_occupancy
  As  As0  1  0.23400000  0.69140000  0.82200000  1.0
  As  As1  1  0.76600000  0.30860000  0.82200000  1.0
  As  As2  1  0.73400000  0.80860000  0.17800000  1.0
  As  As3  1  0.26600000  0.19140000  0.17800000  1.0
  S  S4  1  0.00000000  0.00000000  0.78830000  1.0
  S  S5  1  0.50000000  0.50000000  0.21170000  1.0
  O  O6  1  0.11700000  0.90700000  0.61750000  1.0
  O  O7  1  0.88300000  0.09300000  0.61750000  1.0
  O  O8  1  0.61700000  0.59300000  0.38250000  1.0
  O  O9  1  0.38300000  0.40700000  0.38250000  1.0
  O  O10  1  0.59480000  0.73950000  0.88600000  1.0
  O  O11  1  0.40520000  0.26050000  0.88600000  1.0
  O  O12  1  0.71700000  0.45260000  0.02100000  1.0
  O  O13  1  0.28300000  0.54740000  0.02100000  1.0
  O  O14  1  0.21700000  0.04740000  0.97900000  1.0
  O  O15  1  0.78300000  0.95260000  0.97900000  1.0
  O  O16  1  0.90520000  0.23950000  0.11400000  1.0
  O  O17  1  0.09480000  0.76050000  0.11400000  1.0
