# generated using pymatgen
data_CaH3SBr3
_symmetry_space_group_name_H-M   'P 1'
_cell_length_a   4.41607368
_cell_length_b   8.08229136
_cell_length_c   11.08528225
_cell_angle_alpha   90.14573497
_cell_angle_beta   89.99691782
_cell_angle_gamma   105.85302082
_symmetry_Int_Tables_number   1
_chemical_formula_structural   CaH3SBr3
_chemical_formula_sum   'Ca2 H6 S2 Br6'
_cell_volume   380.60598850
_cell_formula_units_Z   2
loop_
 _symmetry_equiv_pos_site_id
 _symmetry_equiv_pos_as_xyz
  1  'x, y, z'
loop_
 _atom_site_type_symbol
 _atom_site_label
 _atom_site_symmetry_multiplicity
 _atom_site_fract_x
 _atom_site_fract_y
 _atom_site_fract_z
 _atom_site_occupancy
  Ca  Ca0  1  0.99318998  0.98640684  0.67300806  1
  Ca  Ca1  1  0.98921490  0.97897948  0.18452576  1
  H  H2  1  0.52823838  0.61821167  0.92460521  1
  H  H3  1  0.28165128  0.56329618  0.77463502  1
  H  H4  1  0.09003932  0.61815952  0.92464126  1
  H  H5  1  0.99448261  0.55118166  0.36329975  1
  H  H6  1  0.67102303  0.34256688  0.29976744  1
  H  H7  1  0.55601516  0.55115793  0.36326943  1
  S  S8  1  0.24809418  0.49603994  0.89332719  1
  S  S9  1  0.72051003  0.44168636  0.40812520  1
  Br  Br10  1  0.36752906  0.73507018  0.62117772  1
  Br  Br11  1  0.60769788  0.21594651  0.13033730  1
  Br  Br12  1  0.36432923  0.72919232  0.22648927  1
  Br  Br13  1  0.60646313  0.21300741  0.73262104  1
  Br  Br14  1  0.92848297  0.85701216  0.93148710  1
  Br  Br15  1  0.05292388  0.10627096  0.42594627  1
