# generated using pymatgen
data_Sb2O3
_symmetry_space_group_name_H-M   'P 1'
_cell_length_a   19.49543639
_cell_length_b   4.22680905
_cell_length_c   7.35571354
_cell_angle_alpha   54.95975936
_cell_angle_beta   90.00000000
_cell_angle_gamma   90.00000000
_symmetry_Int_Tables_number   1
_chemical_formula_structural   Sb2O3
_chemical_formula_sum   'Sb4 O6'
_cell_volume   496.27360912
_cell_formula_units_Z   2
loop_
 _symmetry_equiv_pos_site_id
 _symmetry_equiv_pos_as_xyz
  1  'x, y, z'
loop_
 _atom_site_type_symbol
 _atom_site_label
 _atom_site_symmetry_multiplicity
 _atom_site_fract_x
 _atom_site_fract_y
 _atom_site_fract_z
 _atom_site_occupancy
  Sb  Sb0  1  0.88470542  0.51274299  0.16772845  1
  Sb  Sb1  1  0.11529458  0.51274299  0.66772845  1
  Sb  Sb2  1  0.06978861  0.59508437  0.08560367  1
  Sb  Sb3  1  0.93021139  0.59508437  0.58560367  1
  O  O4  1  0.91947128  0.19740626  0.48299756  1
  O  O5  1  0.02844721  0.68304839  0.49706977  1
  O  O6  1  0.08052872  0.19740626  0.98299756  1
  O  O7  1  0.97155279  0.68304839  0.99706977  1
  O  O8  1  0.89465049  0.91363794  0.26660062  1
  O  O9  1  0.10534951  0.91363794  0.76660062  1
