# generated using pymatgen
data_YHO2
_symmetry_space_group_name_H-M   'P 1'
_cell_length_a   7.14057527
_cell_length_b   7.14057527
_cell_length_c   4.27637808
_cell_angle_alpha   90.00000000
_cell_angle_beta   90.00000000
_cell_angle_gamma   150.87384478
_symmetry_Int_Tables_number   1
_chemical_formula_structural   YHO2
_chemical_formula_sum   'Y2 H2 O4'
_cell_volume   106.12907104
_cell_formula_units_Z   2
loop_
 _symmetry_equiv_pos_site_id
 _symmetry_equiv_pos_as_xyz
  1  'x, y, z'
loop_
 _atom_site_type_symbol
 _atom_site_label
 _atom_site_symmetry_multiplicity
 _atom_site_fract_x
 _atom_site_fract_y
 _atom_site_fract_z
 _atom_site_occupancy
  Y  Y0  1  0.67143060  0.32856940  0.25060862  1
  Y  Y1  1  0.32856940  0.67143060  0.75060862  1
  H  H2  1  0.01536253  0.98463747  0.42994593  1
  H  H3  1  0.98463747  0.01536253  0.92994593  1
  O  O4  1  0.27880092  0.72119908  0.25069566  1
  O  O5  1  0.72119908  0.27880092  0.75069566  1
  O  O6  1  0.06438540  0.93561460  0.25814979  1
  O  O7  1  0.93561460  0.06438540  0.75814979  1
