# generated using pymatgen
data_LiSnBr3
_symmetry_space_group_name_H-M   'P 1'
_cell_length_a   5.51618044
_cell_length_b   5.51622784
_cell_length_c   5.52671966
_cell_angle_alpha   86.58759394
_cell_angle_beta   86.55940523
_cell_angle_gamma   86.59883869
_symmetry_Int_Tables_number   1
_chemical_formula_structural   LiSnBr3
_chemical_formula_sum   'Li1 Sn1 Br3'
_cell_volume   167.30655811
_cell_formula_units_Z   1
loop_
 _symmetry_equiv_pos_site_id
 _symmetry_equiv_pos_as_xyz
  1  'x, y, z'
loop_
 _atom_site_type_symbol
 _atom_site_label
 _atom_site_symmetry_multiplicity
 _atom_site_fract_x
 _atom_site_fract_y
 _atom_site_fract_z
 _atom_site_occupancy
  Li  Li0  1  0.86828912  0.88125688  0.88033227  1
  Sn  Sn1  1  0.51689073  0.52881800  0.52723166  1
  Br  Br2  1  0.35794909  0.86071291  0.85726379  1
  Br  Br3  1  0.84869971  0.85938454  0.36750191  1
  Br  Br4  1  0.84817034  0.36982667  0.85767037  1
