# generated using pymatgen
data_Na3W(OF)3
_symmetry_space_group_name_H-M   'P 1'
_cell_length_a   5.98280620
_cell_length_b   5.98280620
_cell_length_c   5.98280620
_cell_angle_alpha   56.81527265
_cell_angle_beta   56.81527265
_cell_angle_gamma   56.81527265
_symmetry_Int_Tables_number   1
_chemical_formula_structural   Na3W(OF)3
_chemical_formula_sum   'Na3 W1 O3 F3'
_cell_volume   140.29611602
_cell_formula_units_Z   1
loop_
 _symmetry_equiv_pos_site_id
 _symmetry_equiv_pos_as_xyz
  1  'x, y, z'
loop_
 _atom_site_type_symbol
 _atom_site_label
 _atom_site_symmetry_multiplicity
 _atom_site_fract_x
 _atom_site_fract_y
 _atom_site_fract_z
 _atom_site_occupancy
  Na  Na0  1  0.77056845  0.77056845  0.77056845  1
  Na  Na1  1  0.48717685  0.48717685  0.48717685  1
  Na  Na2  1  0.27598218  0.27598218  0.27598218  1
  W  W3  1  0.99726319  0.99726319  0.99726319  1
  O  O4  1  0.31273855  0.09296823  0.74510827  1
  O  O5  1  0.09296823  0.74510827  0.31273855  1
  O  O6  1  0.74510827  0.31273855  0.09296823  1
  F  F7  1  0.64658077  0.87155765  0.17429782  1
  F  F8  1  0.17429782  0.64658077  0.87155765  1
  F  F9  1  0.87155765  0.17429782  0.64658077  1
