# generated using pymatgen
data_CsAg(HI2)2
_symmetry_space_group_name_H-M   'P 1'
_cell_length_a   7.60977204
_cell_length_b   7.60977204
_cell_length_c   7.60977204
_cell_angle_alpha   128.27075625
_cell_angle_beta   104.53616304
_cell_angle_gamma   97.44824573
_symmetry_Int_Tables_number   1
_chemical_formula_structural   CsAg(HI2)2
_chemical_formula_sum   'Cs1 Ag1 H2 I4'
_cell_volume   310.43592791
_cell_formula_units_Z   1
loop_
 _symmetry_equiv_pos_site_id
 _symmetry_equiv_pos_as_xyz
  1  'x, y, z'
loop_
 _atom_site_type_symbol
 _atom_site_label
 _atom_site_symmetry_multiplicity
 _atom_site_fract_x
 _atom_site_fract_y
 _atom_site_fract_z
 _atom_site_occupancy
  Cs  Cs0  1  0.00000000  0.00000000  0.00000000  1
  Ag  Ag1  1  0.50000000  0.50000000  -0.00000000  1
  H  H2  1  0.33277465  0.83277465  0.50000000  1
  H  H3  1  0.66722535  0.16722535  0.50000000  1
  I  I4  1  0.18602388  0.04081510  0.57700957  1
  I  I5  1  0.81397612  0.39098569  0.85479122  1
  I  I6  1  0.46380553  0.60901431  0.42299043  1
  I  I7  1  0.53619447  0.95918490  0.14520878  1
