# generated using pymatgen
data_HI
_symmetry_space_group_name_H-M   'P 1'
_cell_length_a   5.25125216
_cell_length_b   6.29552184
_cell_length_c   19.83638025
_cell_angle_alpha   90.00000000
_cell_angle_beta   90.00000000
_cell_angle_gamma   90.00000000
_symmetry_Int_Tables_number   1
_chemical_formula_structural   HI
_chemical_formula_sum   'H4 I4'
_cell_volume   655.77828692
_cell_formula_units_Z   4
loop_
 _symmetry_equiv_pos_site_id
 _symmetry_equiv_pos_as_xyz
  1  'x, y, z'
loop_
 _atom_site_type_symbol
 _atom_site_label
 _atom_site_symmetry_multiplicity
 _atom_site_fract_x
 _atom_site_fract_y
 _atom_site_fract_z
 _atom_site_occupancy
  H  H0  1  0.69282916  0.87670172  0.62144592  1
  H  H1  1  0.30717084  0.87670172  0.37855408  1
  H  H2  1  0.80717084  0.37670172  0.62144592  1
  H  H3  1  0.19282916  0.37670172  0.37855408  1
  I  I4  1  0.01935212  0.57345881  0.62190671  1
  I  I5  1  0.98064788  0.57345881  0.37809329  1
  I  I6  1  0.48064788  0.07345881  0.62190671  1
  I  I7  1  0.51935212  0.07345881  0.37809329  1
