# generated using pymatgen
data_K2BHO2
_symmetry_space_group_name_H-M   'P 1'
_cell_length_a   6.32201795
_cell_length_b   6.32201795
_cell_length_c   5.78090908
_cell_angle_alpha   90.00000000
_cell_angle_beta   90.00000000
_cell_angle_gamma   123.76929824
_symmetry_Int_Tables_number   1
_chemical_formula_structural   K2BHO2
_chemical_formula_sum   'K4 B2 H2 O4'
_cell_volume   192.06852172
_cell_formula_units_Z   2
loop_
 _symmetry_equiv_pos_site_id
 _symmetry_equiv_pos_as_xyz
  1  'x, y, z'
loop_
 _atom_site_type_symbol
 _atom_site_label
 _atom_site_symmetry_multiplicity
 _atom_site_fract_x
 _atom_site_fract_y
 _atom_site_fract_z
 _atom_site_occupancy
  K  K0  1  0.11019792  0.41046895  0.77873357  1
  K  K1  1  0.41046895  0.11019792  0.77873357  1
  K  K2  1  0.88980208  0.58953105  0.27873357  1
  K  K3  1  0.58953105  0.88980208  0.27873357  1
  B  B4  1  0.22320310  0.22320310  0.24959232  1
  B  B5  1  0.77679690  0.77679690  0.74959232  1
  H  H6  1  0.93273294  0.93273294  0.59658556  1
  H  H7  1  0.06726706  0.06726706  0.09658556  1
  O  O8  1  0.18041003  0.40321210  0.31155349  1
  O  O9  1  0.40321210  0.18041003  0.31155349  1
  O  O10  1  0.59678790  0.81958997  0.81155349  1
  O  O11  1  0.81958997  0.59678790  0.81155349  1
