# generated using pymatgen
data_BIO
_symmetry_space_group_name_H-M   'P 1'
_cell_length_a   21.15735385
_cell_length_b   4.65436682
_cell_length_c   8.01529658
_cell_angle_alpha   89.96033284
_cell_angle_beta   90.00000000
_cell_angle_gamma   90.00000000
_symmetry_Int_Tables_number   1
_chemical_formula_structural   BIO
_chemical_formula_sum   'B4 I4 O4'
_cell_volume   789.29881298
_cell_formula_units_Z   4
loop_
 _symmetry_equiv_pos_site_id
 _symmetry_equiv_pos_as_xyz
  1  'x, y, z'
loop_
 _atom_site_type_symbol
 _atom_site_label
 _atom_site_symmetry_multiplicity
 _atom_site_fract_x
 _atom_site_fract_y
 _atom_site_fract_z
 _atom_site_occupancy
  B  B0  1  0.57528085  0.06428311  0.80686679  1
  B  B1  1  0.42471718  0.56429545  0.19314446  1
  B  B2  1  0.42471915  0.06428311  0.30686679  1
  B  B3  1  0.57528282  0.56429545  0.69314446  1
  I  I4  1  0.64551333  0.12795385  0.99900369  1
  I  I5  1  0.35449614  0.62772526  0.00089358  1
  I  I6  1  0.35448667  0.12795385  0.49900369  1
  I  I7  1  0.64550386  0.62772526  0.50089358  1
  O  O8  1  0.55260730  0.79137023  0.77997391  1
  O  O9  1  0.44748632  0.29148225  0.22011756  1
  O  O10  1  0.44739270  0.79137023  0.27997391  1
  O  O11  1  0.55251368  0.29148225  0.72011756  1
