# generated using pymatgen
data_K2GeF6
_symmetry_space_group_name_H-M   'P 1'
_cell_length_a   5.71000000
_cell_length_b   5.71000000
_cell_length_c   9.27000000
_cell_angle_alpha   90.00000000
_cell_angle_beta   90.00000000
_cell_angle_gamma   120.00000000
_symmetry_Int_Tables_number   1
_chemical_formula_structural   K2GeF6
_chemical_formula_sum   'K4 Ge2 F12'
_cell_volume   261.74752410
_cell_formula_units_Z   2
loop_
 _symmetry_equiv_pos_site_id
 _symmetry_equiv_pos_as_xyz
  1  'x, y, z'
loop_
 _atom_site_type_symbol
 _atom_site_label
 _atom_site_symmetry_multiplicity
 _atom_site_fract_x
 _atom_site_fract_y
 _atom_site_fract_z
 _atom_site_occupancy
  K  K0  1  0.00000000  0.00000000  0.11000000  1.0
  K  K1  1  0.00000000  0.00000000  0.61000000  1.0
  K  K2  1  0.66666667  0.33333333  0.39000000  1.0
  K  K3  1  0.33333333  0.66666667  0.89000000  1.0
  Ge  Ge4  1  0.66666667  0.33333333  0.75000000  1.0
  Ge  Ge5  1  0.33333333  0.66666667  0.25000000  1.0
  F  F6  1  0.51000000  0.49000000  0.65000000  1.0
  F  F7  1  0.02000000  0.51000000  0.15000000  1.0
  F  F8  1  0.49000000  0.98000000  0.15000000  1.0
  F  F9  1  0.51000000  0.02000000  0.65000000  1.0
  F  F10  1  0.98000000  0.49000000  0.65000000  1.0
  F  F11  1  0.49000000  0.51000000  0.15000000  1.0
  F  F12  1  0.18000000  0.82000000  0.35000000  1.0
  F  F13  1  0.36000000  0.18000000  0.85000000  1.0
  F  F14  1  0.82000000  0.64000000  0.85000000  1.0
  F  F15  1  0.18000000  0.36000000  0.35000000  1.0
  F  F16  1  0.64000000  0.82000000  0.35000000  1.0
  F  F17  1  0.82000000  0.18000000  0.85000000  1.0
