# generated using pymatgen
data_AlAgGeS4
_symmetry_space_group_name_H-M   'P 1'
_cell_length_a   6.37720609
_cell_length_b   6.37720609
_cell_length_c   6.37720609
_cell_angle_alpha   126.31565833
_cell_angle_beta   126.31565833
_cell_angle_gamma   79.36995175
_symmetry_Int_Tables_number   1
_chemical_formula_structural   AlAgGeS4
_chemical_formula_sum   'Al1 Ag1 Ge1 S4'
_cell_volume   162.77190448
_cell_formula_units_Z   1
loop_
 _symmetry_equiv_pos_site_id
 _symmetry_equiv_pos_as_xyz
  1  'x, y, z'
loop_
 _atom_site_type_symbol
 _atom_site_label
 _atom_site_symmetry_multiplicity
 _atom_site_fract_x
 _atom_site_fract_y
 _atom_site_fract_z
 _atom_site_occupancy
  Al  Al0  1  0.50000000  0.50000000  -0.00000000  1
  Ag  Ag1  1  0.00000000  0.00000000  0.00000000  1
  Ge  Ge2  1  0.25000000  0.75000000  0.50000000  1
  S  S3  1  0.15097635  0.60927549  0.02638176  1
  S  S4  1  0.39072451  0.41710627  0.54170086  1
  S  S5  1  0.58289373  0.12459459  0.97361824  1
  S  S6  1  0.87540541  0.84902365  0.45829914  1
