# generated using pymatgen
data_AlSiAgSe4
_symmetry_space_group_name_H-M   'P 1'
_cell_length_a   6.62307154
_cell_length_b   6.62307154
_cell_length_c   6.62307154
_cell_angle_alpha   126.03836953
_cell_angle_beta   126.03836953
_cell_angle_gamma   79.82508673
_symmetry_Int_Tables_number   1
_chemical_formula_structural   AlSiAgSe4
_chemical_formula_sum   'Al1 Si1 Ag1 Se4'
_cell_volume   183.47216209
_cell_formula_units_Z   1
loop_
 _symmetry_equiv_pos_site_id
 _symmetry_equiv_pos_as_xyz
  1  'x, y, z'
loop_
 _atom_site_type_symbol
 _atom_site_label
 _atom_site_symmetry_multiplicity
 _atom_site_fract_x
 _atom_site_fract_y
 _atom_site_fract_z
 _atom_site_occupancy
  Al  Al0  1  0.50000000  0.50000000  1.00000000  1
  Si  Si1  1  0.25000000  0.75000000  0.50000000  1
  Ag  Ag2  1  0.00000000  0.00000000  0.00000000  1
  Se  Se3  1  0.14216870  0.60781421  0.02704760  1
  Se  Se4  1  0.39218579  0.41923339  0.53435449  1
  Se  Se5  1  0.58076661  0.11512110  0.97295240  1
  Se  Se6  1  0.88487890  0.85783130  0.46564551  1
