# generated using pymatgen
data_LiHgAsS4
_symmetry_space_group_name_H-M   'P 1'
_cell_length_a   6.02973137
_cell_length_b   6.03004456
_cell_length_c   6.49691976
_cell_angle_alpha   117.64614667
_cell_angle_beta   117.64772972
_cell_angle_gamma   89.99673571
_symmetry_Int_Tables_number   1
_chemical_formula_structural   LiHgAsS4
_chemical_formula_sum   'Li1 Hg1 As1 S4'
_cell_volume   178.25086202
_cell_formula_units_Z   1
loop_
 _symmetry_equiv_pos_site_id
 _symmetry_equiv_pos_as_xyz
  1  'x, y, z'
loop_
 _atom_site_type_symbol
 _atom_site_label
 _atom_site_symmetry_multiplicity
 _atom_site_fract_x
 _atom_site_fract_y
 _atom_site_fract_z
 _atom_site_occupancy
  Li  Li0  1  0.50016319  0.50022837  0.00011440  1
  Hg  Hg1  1  0.99994568  0.99998907  0.99996478  1
  As  As2  1  0.74998708  0.24996042  0.49999931  1
  S  S3  1  0.42260676  0.36751452  0.27340943  1
  S  S4  1  0.63229635  0.14906018  0.72645014  1
  S  S5  1  0.09403697  0.57734178  0.72645063  1
  S  S6  1  0.85106097  0.90593466  0.27365532  1
