# generated using pymatgen
data_GaTeBr
_symmetry_space_group_name_H-M   'P 1'
_cell_length_a   4.16876407
_cell_length_b   4.16876407
_cell_length_c   7.09992918
_cell_angle_alpha   89.58763667
_cell_angle_beta   89.58763667
_cell_angle_gamma   60.03041557
_symmetry_Int_Tables_number   1
_chemical_formula_structural   GaTeBr
_chemical_formula_sum   'Ga1 Te1 Br1'
_cell_volume   106.88513347
_cell_formula_units_Z   1
loop_
 _symmetry_equiv_pos_site_id
 _symmetry_equiv_pos_as_xyz
  1  'x, y, z'
loop_
 _atom_site_type_symbol
 _atom_site_label
 _atom_site_symmetry_multiplicity
 _atom_site_fract_x
 _atom_site_fract_y
 _atom_site_fract_z
 _atom_site_occupancy
  Ga  Ga0  1  0.96887534  0.96887534  0.41949078  1
  Te  Te1  1  0.30363770  0.30363770  0.24801481  1
  Br  Br2  1  0.96529696  0.96529696  0.74468441  1
