# generated using pymatgen
data_GaTeI
_symmetry_space_group_name_H-M   'P 1'
_cell_length_a   4.22808727
_cell_length_b   6.09393480
_cell_length_c   9.06835432
_cell_angle_alpha   90.00000000
_cell_angle_beta   90.00000000
_cell_angle_gamma   90.00000000
_symmetry_Int_Tables_number   1
_chemical_formula_structural   GaTeI
_chemical_formula_sum   'Ga2 Te2 I2'
_cell_volume   233.65238946
_cell_formula_units_Z   2
loop_
 _symmetry_equiv_pos_site_id
 _symmetry_equiv_pos_as_xyz
  1  'x, y, z'
loop_
 _atom_site_type_symbol
 _atom_site_label
 _atom_site_symmetry_multiplicity
 _atom_site_fract_x
 _atom_site_fract_y
 _atom_site_fract_z
 _atom_site_occupancy
  Ga  Ga0  1  0.00000000  0.83474920  0.60864994  1
  Ga  Ga1  1  0.50000000  0.33474920  0.39135006  1
  Te  Te2  1  0.00000000  0.06246307  0.35696690  1
  Te  Te3  1  0.50000000  0.56246307  0.64303310  1
  I  I4  1  0.00000000  0.06899773  0.84267989  1
  I  I5  1  0.50000000  0.56899773  0.15732011  1
