# generated using pymatgen
data_InBiPb2Se5
_symmetry_space_group_name_H-M   'P 1'
_cell_length_a   9.61826514
_cell_length_b   9.61826514
_cell_length_c   13.28365447
_cell_angle_alpha   90.00000000
_cell_angle_beta   90.00000000
_cell_angle_gamma   154.77630410
_symmetry_Int_Tables_number   1
_chemical_formula_structural   InBiPb2Se5
_chemical_formula_sum   'In2 Bi2 Pb4 Se10'
_cell_volume   523.69338088
_cell_formula_units_Z   2
loop_
 _symmetry_equiv_pos_site_id
 _symmetry_equiv_pos_as_xyz
  1  'x, y, z'
loop_
 _atom_site_type_symbol
 _atom_site_label
 _atom_site_symmetry_multiplicity
 _atom_site_fract_x
 _atom_site_fract_y
 _atom_site_fract_z
 _atom_site_occupancy
  In  In0  1  0.44971998  0.55028002  0.06503406  1
  In  In1  1  0.55028002  0.44971998  0.56503406  1
  Bi  Bi2  1  0.20687837  0.79312163  0.47657889  1
  Bi  Bi3  1  0.79312163  0.20687837  0.97657889  1
  Pb  Pb4  1  0.12601392  0.87398608  0.18349492  1
  Pb  Pb5  1  0.87339532  0.12660467  0.32897590  1
  Pb  Pb6  1  0.87398608  0.12601392  0.68349492  1
  Pb  Pb7  1  0.12660467  0.87339532  0.82897590  1
  Se  Se8  1  0.64164992  0.35835007  0.98777623  1
  Se  Se9  1  0.31541609  0.68458391  0.13462809  1
  Se  Se10  1  0.51860940  0.48139059  0.23195903  1
  Se  Se11  1  0.71370252  0.28629749  0.32208359  1
  Se  Se12  1  0.04143044  0.95856956  0.44549929  1
  Se  Se13  1  0.35835007  0.64164992  0.48777623  1
  Se  Se14  1  0.68458391  0.31541609  0.63462809  1
  Se  Se15  1  0.48139059  0.51860940  0.73195903  1
  Se  Se16  1  0.28629749  0.71370252  0.82208359  1
  Se  Se17  1  0.95856956  0.04143044  0.94549929  1
