# generated using pymatgen
data_RbNaSiF6
_symmetry_space_group_name_H-M   'P 1'
_cell_length_a   5.59445900
_cell_length_b   5.59445900
_cell_length_c   5.64898680
_cell_angle_alpha   90.00000000
_cell_angle_beta   90.00000000
_cell_angle_gamma   120.00000000
_symmetry_Int_Tables_number   1
_chemical_formula_structural   RbNaSiF6
_chemical_formula_sum   'Rb1 Na1 Si1 F6'
_cell_volume   153.11487452
_cell_formula_units_Z   1
loop_
 _symmetry_equiv_pos_site_id
 _symmetry_equiv_pos_as_xyz
  1  'x, y, z'
loop_
 _atom_site_type_symbol
 _atom_site_label
 _atom_site_symmetry_multiplicity
 _atom_site_fract_x
 _atom_site_fract_y
 _atom_site_fract_z
 _atom_site_occupancy
  Rb  Rb0  1  0.33333333  0.66666667  0.00000000  1
  Na  Na1  1  0.66666667  0.33333333  0.50000000  1
  Si  Si2  1  -0.00000000  0.00000000  0.50000000  1
  F  F3  1  0.75214652  0.74414700  0.67525410  1
  F  F4  1  0.25585300  0.00799953  0.67525410  1
  F  F5  1  0.99200047  0.24785348  0.67525410  1
  F  F6  1  0.25585300  0.24785348  0.32474590  1
  F  F7  1  0.75214652  0.00799953  0.32474590  1
  F  F8  1  0.99200047  0.74414700  0.32474590  1
