# generated using pymatgen
data_LiMgScF6
_symmetry_space_group_name_H-M   'P 1'
_cell_length_a   4.77710143
_cell_length_b   4.77710143
_cell_length_c   9.36827364
_cell_angle_alpha   90.00000000
_cell_angle_beta   90.00000000
_cell_angle_gamma   90.00000000
_symmetry_Int_Tables_number   1
_chemical_formula_structural   LiMgScF6
_chemical_formula_sum   'Li2 Mg2 Sc2 F12'
_cell_volume   213.79054420
_cell_formula_units_Z   2
loop_
 _symmetry_equiv_pos_site_id
 _symmetry_equiv_pos_as_xyz
  1  'x, y, z'
loop_
 _atom_site_type_symbol
 _atom_site_label
 _atom_site_symmetry_multiplicity
 _atom_site_fract_x
 _atom_site_fract_y
 _atom_site_fract_z
 _atom_site_occupancy
  Li  Li0  1  0.50000000  0.50000000  0.49858071  1
  Li  Li1  1  0.00000000  0.00000000  0.99858071  1
  Mg  Mg2  1  0.50000000  0.50000000  0.16807548  1
  Mg  Mg3  1  0.00000000  0.00000000  0.66807548  1
  Sc  Sc4  1  0.50000000  0.50000000  0.83230342  1
  Sc  Sc5  1  0.00000000  0.00000000  0.33230342  1
  F  F6  1  0.19234615  0.80765385  0.50120979  1
  F  F7  1  0.80765385  0.19234615  0.50120979  1
  F  F8  1  0.30765385  0.30765385  0.00120979  1
  F  F9  1  0.69234615  0.69234615  0.00120979  1
  F  F10  1  0.20214178  0.79785822  0.17127536  1
  F  F11  1  0.79785822  0.20214178  0.17127536  1
  F  F12  1  0.29785822  0.29785822  0.67127536  1
  F  F13  1  0.70214178  0.70214178  0.67127536  1
  F  F14  1  0.80209443  0.19790557  0.82803554  1
  F  F15  1  0.19790557  0.80209443  0.82803554  1
  F  F16  1  0.69790557  0.69790557  0.32803554  1
  F  F17  1  0.30209443  0.30209443  0.32803554  1
