# generated using pymatgen
data_Ba2In2O5
_symmetry_space_group_name_H-M   'P 1'
_cell_length_a   5.95630000
_cell_length_b   6.08330000
_cell_length_c   9.38099613
_cell_angle_alpha   71.08074830
_cell_angle_beta   71.49023438
_cell_angle_gamma   90.00000000
_symmetry_Int_Tables_number   1
_chemical_formula_structural   Ba2In2O5
_chemical_formula_sum   'Ba4 In4 O10'
_cell_volume   302.89959864
_cell_formula_units_Z   2
loop_
 _symmetry_equiv_pos_site_id
 _symmetry_equiv_pos_as_xyz
  1  'x, y, z'
loop_
 _atom_site_type_symbol
 _atom_site_label
 _atom_site_symmetry_multiplicity
 _atom_site_fract_x
 _atom_site_fract_y
 _atom_site_fract_z
 _atom_site_occupancy
  Ba  Ba0  1  0.12050000  0.59370000  0.77840000  1.0
  Ba  Ba1  1  0.89890000  0.40630000  0.22160000  1.0
  Ba  Ba2  1  0.62050000  0.12790000  0.77840000  1.0
  Ba  Ba3  1  0.39890000  0.87210000  0.22160000  1.0
  In  In4  1  0.26190000  0.20150000  0.50000000  1.0
  In  In5  1  0.76190000  0.79850000  0.50000000  1.0
  In  In6  1  0.50050000  0.50000000  0.00000000  1.0
  In  In7  1  0.00050000  0.00000000  0.00000000  1.0
  O  O8  1  0.86890000  0.14190000  0.50000000  1.0
  O  O9  1  0.36890000  0.85810000  0.50000000  1.0
  O  O10  1  0.69310000  0.58820000  0.71640000  1.0
  O  O11  1  0.40950000  0.41180000  0.28360000  1.0
  O  O12  1  0.19310000  0.19540000  0.71640000  1.0
  O  O13  1  0.90950000  0.80460000  0.28360000  1.0
  O  O14  1  0.79220000  0.22330000  0.00900000  1.0
  O  O15  1  0.80120000  0.77670000  0.99100000  1.0
  O  O16  1  0.30120000  0.73230000  0.99100000  1.0
  O  O17  1  0.29220000  0.26770000  0.00900000  1.0
