# generated using pymatgen
data_NaTlSiF6
_symmetry_space_group_name_H-M   'P 1'
_cell_length_a   5.60490661
_cell_length_b   5.60490661
_cell_length_c   5.66621807
_cell_angle_alpha   89.99014985
_cell_angle_beta   89.99014985
_cell_angle_gamma   120.02980799
_symmetry_Int_Tables_number   1
_chemical_formula_structural   NaTlSiF6
_chemical_formula_sum   'Na1 Tl1 Si1 F6'
_cell_volume   154.10975410
_cell_formula_units_Z   1
loop_
 _symmetry_equiv_pos_site_id
 _symmetry_equiv_pos_as_xyz
  1  'x, y, z'
loop_
 _atom_site_type_symbol
 _atom_site_label
 _atom_site_symmetry_multiplicity
 _atom_site_fract_x
 _atom_site_fract_y
 _atom_site_fract_z
 _atom_site_occupancy
  Na  Na0  1  0.33344497  0.66655503  0.00000000  1
  Tl  Tl1  1  0.00006288  0.99993712  0.50000000  1
  Si  Si2  1  0.66668266  0.33331734  0.00000000  1
  F  F3  1  0.65868093  0.07771424  0.82544913  1
  F  F4  1  0.92228576  0.34131907  0.17455087  1
  F  F5  1  0.65850176  0.58083622  0.17456991  1
  F  F6  1  0.41874500  0.07730215  0.17442972  1
  F  F7  1  0.41916378  0.34149824  0.82543009  1
  F  F8  1  0.92269785  0.58125500  0.82557028  1
