# generated using pymatgen
data_KTlSiF6
_symmetry_space_group_name_H-M   'P 1'
_cell_length_a   5.20799491
_cell_length_b   6.09709345
_cell_length_c   6.11291432
_cell_angle_alpha   119.91421714
_cell_angle_beta   89.96327119
_cell_angle_gamma   90.07402336
_symmetry_Int_Tables_number   1
_chemical_formula_structural   KTlSiF6
_chemical_formula_sum   'K1 Tl1 Si1 F6'
_cell_volume   168.24677099
_cell_formula_units_Z   1
loop_
 _symmetry_equiv_pos_site_id
 _symmetry_equiv_pos_as_xyz
  1  'x, y, z'
loop_
 _atom_site_type_symbol
 _atom_site_label
 _atom_site_symmetry_multiplicity
 _atom_site_fract_x
 _atom_site_fract_y
 _atom_site_fract_z
 _atom_site_occupancy
  K  K0  1  0.50009655  0.33377072  0.66757596  1
  Tl  Tl1  1  0.00005368  0.00043276  0.00089832  1
  Si  Si2  1  0.49999318  0.66657448  0.33318019  1
  F  F3  1  0.69040113  0.66832746  0.56480455  1
  F  F4  1  0.30957710  0.89649610  0.56474942  1
  F  F5  1  0.30952000  0.66767622  0.10289402  1
  F  F6  1  0.31059002  0.43337622  0.33161661  1
  F  F7  1  0.69046482  0.43513881  0.10295105  1
  F  F8  1  0.68939254  0.89815715  0.33151631  1
