# generated using pymatgen
data_BeBrCl
_symmetry_space_group_name_H-M   'P 1'
_cell_length_a   19.44512715
_cell_length_b   3.53618918
_cell_length_c   5.78353336
_cell_angle_alpha   89.97865735
_cell_angle_beta   90.00000000
_cell_angle_gamma   90.00000000
_symmetry_Int_Tables_number   1
_chemical_formula_structural   BeBrCl
_chemical_formula_sum   'Be2 Br2 Cl2'
_cell_volume   397.68525882
_cell_formula_units_Z   2
loop_
 _symmetry_equiv_pos_site_id
 _symmetry_equiv_pos_as_xyz
  1  'x, y, z'
loop_
 _atom_site_type_symbol
 _atom_site_label
 _atom_site_symmetry_multiplicity
 _atom_site_fract_x
 _atom_site_fract_y
 _atom_site_fract_z
 _atom_site_occupancy
  Be  Be0  1  0.94819689  0.90405999  0.89239960  1
  Be  Be1  1  0.05180311  0.90405999  0.39239960  1
  Br  Br2  1  0.11429928  0.40423862  0.49199902  1
  Br  Br3  1  0.88570072  0.40423862  0.99199902  1
  Cl  Cl4  1  0.04259092  0.90476112  0.03937142  1
  Cl  Cl5  1  0.95740908  0.90476112  0.53937142  1
