# generated using pymatgen
data_NaYP2O7
_symmetry_space_group_name_H-M   'P 1'
_cell_length_a   5.71484566
_cell_length_b   5.71484566
_cell_length_c   4.77480615
_cell_angle_alpha   82.96702211
_cell_angle_beta   82.96702211
_cell_angle_gamma   104.34214246
_symmetry_Int_Tables_number   1
_chemical_formula_structural   NaYP2O7
_chemical_formula_sum   'Na1 Y1 P2 O7'
_cell_volume   148.04105182
_cell_formula_units_Z   1
loop_
 _symmetry_equiv_pos_site_id
 _symmetry_equiv_pos_as_xyz
  1  'x, y, z'
loop_
 _atom_site_type_symbol
 _atom_site_label
 _atom_site_symmetry_multiplicity
 _atom_site_fract_x
 _atom_site_fract_y
 _atom_site_fract_z
 _atom_site_occupancy
  Na  Na0  1  0.74986728  0.25013271  0.50000000  1
  Y  Y1  1  0.36608961  0.63391039  0.50000000  1
  P  P2  1  0.23918395  0.16391989  0.08099836  1
  P  P3  1  0.83608011  0.76081605  0.91900164  1
  O  O4  1  0.35372475  0.98034650  0.23406355  1
  O  O5  1  0.39793817  0.30152109  0.79920849  1
  O  O6  1  0.16268452  0.33569823  0.27654492  1
  O  O7  1  0.01965350  0.64627525  0.76593645  1
  O  O8  1  0.97878711  0.02121289  0.00000000  1
  O  O9  1  0.66430177  0.83731548  0.72345508  1
  O  O10  1  0.69847891  0.60206183  0.20079151  1
