# generated using pymatgen
data_RbLi(HCl2)2
_symmetry_space_group_name_H-M   'P 1'
_cell_length_a   6.50901970
_cell_length_b   6.50901970
_cell_length_c   6.50901970
_cell_angle_alpha   127.93052924
_cell_angle_beta   105.57734333
_cell_angle_gamma   96.70489009
_symmetry_Int_Tables_number   1
_chemical_formula_structural   RbLi(HCl2)2
_chemical_formula_sum   'Rb1 Li1 H2 Cl4'
_cell_volume   194.57820874
_cell_formula_units_Z   1
loop_
 _symmetry_equiv_pos_site_id
 _symmetry_equiv_pos_as_xyz
  1  'x, y, z'
loop_
 _atom_site_type_symbol
 _atom_site_label
 _atom_site_symmetry_multiplicity
 _atom_site_fract_x
 _atom_site_fract_y
 _atom_site_fract_z
 _atom_site_occupancy
  Rb  Rb0  1  0.00000000  0.00000000  0.00000000  1
  Li  Li1  1  0.50000000  0.50000000  0.00000000  1
  H  H2  1  0.33172478  0.83172478  0.50000000  1
  H  H3  1  0.66827522  0.16827522  0.50000000  1
  Cl  Cl4  1  0.20085649  0.03926295  0.58869314  1
  Cl  Cl5  1  0.79914351  0.38783665  0.83840646  1
  Cl  Cl6  1  0.45056981  0.61216335  0.41130686  1
  Cl  Cl7  1  0.54943019  0.96073705  0.16159354  1
