# generated using pymatgen
data_GaAsO4
_symmetry_space_group_name_H-M   'P 1'
_cell_length_a   4.99300000
_cell_length_b   4.99300000
_cell_length_c   11.36600000
_cell_angle_alpha   90.00000000
_cell_angle_beta   90.00000000
_cell_angle_gamma   120.00000000
_symmetry_Int_Tables_number   1
_chemical_formula_structural   GaAsO4
_chemical_formula_sum   'Ga3 As3 O12'
_cell_volume   245.39257367
_cell_formula_units_Z   3
loop_
 _symmetry_equiv_pos_site_id
 _symmetry_equiv_pos_as_xyz
  1  'x, y, z'
loop_
 _atom_site_type_symbol
 _atom_site_label
 _atom_site_symmetry_multiplicity
 _atom_site_fract_x
 _atom_site_fract_y
 _atom_site_fract_z
 _atom_site_occupancy
  Ga  Ga0  1  0.45040000  0.00000000  0.33333333  1.0
  Ga  Ga1  1  0.00000000  0.45040000  0.66666667  1.0
  Ga  Ga2  1  0.54960000  0.54960000  0.00000000  1.0
  As  As3  1  0.44990000  0.00000000  0.83333333  1.0
  As  As4  1  0.00000000  0.44990000  0.16666667  1.0
  As  As5  1  0.55010000  0.55010000  0.50000000  1.0
  O  O6  1  0.30350000  0.39900000  0.12450000  1.0
  O  O7  1  0.60100000  0.90450000  0.45783333  1.0
  O  O8  1  0.09550000  0.69650000  0.79116667  1.0
  O  O9  1  0.90450000  0.60100000  0.54216667  1.0
  O  O10  1  0.69650000  0.09550000  0.20883333  1.0
  O  O11  1  0.39900000  0.30350000  0.87550000  1.0
  O  O12  1  0.39950000  0.30850000  0.38080000  1.0
  O  O13  1  0.69150000  0.09100000  0.71413333  1.0
  O  O14  1  0.90900000  0.60050000  0.04746667  1.0
  O  O15  1  0.09100000  0.69150000  0.28586667  1.0
  O  O16  1  0.60050000  0.90900000  0.95253333  1.0
  O  O17  1  0.30850000  0.39950000  0.61920000  1.0
