# generated using pymatgen
data_KHBrCl
_symmetry_space_group_name_H-M   'P 1'
_cell_length_a   5.02458337
_cell_length_b   5.02458337
_cell_length_c   7.04553436
_cell_angle_alpha   67.20291446
_cell_angle_beta   67.20291446
_cell_angle_gamma   61.32239178
_symmetry_Int_Tables_number   1
_chemical_formula_structural   KHBrCl
_chemical_formula_sum   'K1 H1 Br1 Cl1'
_cell_volume   139.32723037
_cell_formula_units_Z   1
loop_
 _symmetry_equiv_pos_site_id
 _symmetry_equiv_pos_as_xyz
  1  'x, y, z'
loop_
 _atom_site_type_symbol
 _atom_site_label
 _atom_site_symmetry_multiplicity
 _atom_site_fract_x
 _atom_site_fract_y
 _atom_site_fract_z
 _atom_site_occupancy
  K  K0  1  0.84868980  0.84868980  0.67688697  1
  H  H1  1  0.33895939  0.33895939  0.21163878  1
  Br  Br2  1  0.42255665  0.42255665  0.91769642  1
  Cl  Cl3  1  0.27257418  0.27257417  0.44011783  1
