# generated using pymatgen
data_CaAl2B2O7
_symmetry_space_group_name_H-M   'P 1'
_cell_length_a   8.41845409
_cell_length_b   8.41845409
_cell_length_c   8.41845409
_cell_angle_alpha   33.46079404
_cell_angle_beta   33.46079404
_cell_angle_gamma   33.46079404
_symmetry_Int_Tables_number   1
_chemical_formula_structural   CaAl2B2O7
_chemical_formula_sum   'Ca1 Al2 B2 O7'
_cell_volume   161.52936733
_cell_formula_units_Z   1
loop_
 _symmetry_equiv_pos_site_id
 _symmetry_equiv_pos_as_xyz
  1  'x, y, z'
loop_
 _atom_site_type_symbol
 _atom_site_label
 _atom_site_symmetry_multiplicity
 _atom_site_fract_x
 _atom_site_fract_y
 _atom_site_fract_z
 _atom_site_occupancy
  Ca  Ca0  1  0.00000000  0.00000000  0.00000000  1
  Al  Al1  1  0.57089253  0.57089253  0.57089253  1
  Al  Al2  1  0.42910747  0.42910747  0.42910747  1
  B  B3  1  0.73275108  0.73275108  0.73275108  1
  B  B4  1  0.26724892  0.26724892  0.26724892  1
  O  O5  1  0.53414252  0.30592934  0.96776978  1
  O  O6  1  0.30592934  0.96776978  0.53414252  1
  O  O7  1  0.96776978  0.53414252  0.30592934  1
  O  O8  1  0.50000000  0.50000000  0.50000000  1
  O  O9  1  0.03223022  0.69407066  0.46585748  1
  O  O10  1  0.69407066  0.46585748  0.03223022  1
  O  O11  1  0.46585748  0.03223022  0.69407066  1
