# generated using pymatgen
data_CaY2ZrO6
_symmetry_space_group_name_H-M   'P 1'
_cell_length_a   6.04170123
_cell_length_b   6.04170123
_cell_length_c   6.04170123
_cell_angle_alpha   56.90413039
_cell_angle_beta   56.90413039
_cell_angle_gamma   56.90413039
_symmetry_Int_Tables_number   1
_chemical_formula_structural   CaY2ZrO6
_chemical_formula_sum   'Ca1 Y2 Zr1 O6'
_cell_volume   144.80491100
_cell_formula_units_Z   1
loop_
 _symmetry_equiv_pos_site_id
 _symmetry_equiv_pos_as_xyz
  1  'x, y, z'
loop_
 _atom_site_type_symbol
 _atom_site_label
 _atom_site_symmetry_multiplicity
 _atom_site_fract_x
 _atom_site_fract_y
 _atom_site_fract_z
 _atom_site_occupancy
  Ca  Ca0  1  0.19541981  0.19541981  0.19541981  1
  Y  Y1  1  0.47491226  0.47491226  0.47491226  1
  Y  Y2  1  0.97659485  0.97659485  0.97659485  1
  Zr  Zr3  1  0.68663803  0.68663803  0.68663803  1
  O  O4  1  0.78274767  0.40388213  0.05618389  1
  O  O5  1  0.05618389  0.78274767  0.40388213  1
  O  O6  1  0.40388213  0.05618389  0.78274767  1
  O  O7  1  0.30322382  0.59621543  0.86260646  1
  O  O8  1  0.86260646  0.30322382  0.59621543  1
  O  O9  1  0.59621543  0.86260646  0.30322382  1
