# generated using pymatgen
data_SrLi2ZrO4
_symmetry_space_group_name_H-M   'P 1'
_cell_length_a   5.23692395
_cell_length_b   5.23692395
_cell_length_c   5.23692395
_cell_angle_alpha   116.69972798
_cell_angle_beta   116.69972798
_cell_angle_gamma   95.81809459
_symmetry_Int_Tables_number   1
_chemical_formula_structural   SrLi2ZrO4
_chemical_formula_sum   'Sr1 Li2 Zr1 O4'
_cell_volume   106.03215256
_cell_formula_units_Z   1
loop_
 _symmetry_equiv_pos_site_id
 _symmetry_equiv_pos_as_xyz
  1  'x, y, z'
loop_
 _atom_site_type_symbol
 _atom_site_label
 _atom_site_symmetry_multiplicity
 _atom_site_fract_x
 _atom_site_fract_y
 _atom_site_fract_z
 _atom_site_occupancy
  Sr  Sr0  1  0.00000000  0.00000000  0.00000000  1
  Li  Li1  1  0.25000000  0.75000000  0.50000000  1
  Li  Li2  1  0.75000000  0.25000000  0.50000000  1
  Zr  Zr3  1  0.50000000  0.50000000  -0.00000000  1
  O  O4  1  0.87451875  0.87451875  0.42304132  1
  O  O5  1  0.54852258  0.12548126  1.00000000  1
  O  O6  1  0.45147742  0.45147742  0.57695868  1
  O  O7  1  0.12548126  0.54852258  -0.00000000  1
