# generated using pymatgen
data_YSc3(BO3)4
_symmetry_space_group_name_H-M   'P 1'
_cell_length_a   6.26009397
_cell_length_b   6.26009397
_cell_length_c   6.26009397
_cell_angle_alpha   103.33972047
_cell_angle_beta   103.33972047
_cell_angle_gamma   103.33972047
_symmetry_Int_Tables_number   1
_chemical_formula_structural   YSc3(BO3)4
_chemical_formula_sum   'Y1 Sc3 B4 O12'
_cell_volume   221.57302876
_cell_formula_units_Z   1
loop_
 _symmetry_equiv_pos_site_id
 _symmetry_equiv_pos_as_xyz
  1  'x, y, z'
loop_
 _atom_site_type_symbol
 _atom_site_label
 _atom_site_symmetry_multiplicity
 _atom_site_fract_x
 _atom_site_fract_y
 _atom_site_fract_z
 _atom_site_occupancy
  Y  Y0  1  0.00000000  0.00000000  0.00000000  1
  Sc  Sc1  1  -0.00000000  0.45509966  0.54490034  1
  Sc  Sc2  1  0.54490034  -0.00000000  0.45509966  1
  Sc  Sc3  1  0.45509966  0.54490034  0.00000000  1
  B  B4  1  0.50000000  0.04528580  0.95471420  1
  B  B5  1  0.95471420  0.50000000  0.04528580  1
  B  B6  1  0.04528580  0.95471420  0.50000000  1
  B  B7  1  0.50000000  0.50000000  0.50000000  1
  O  O8  1  0.64059339  0.35940661  0.50000000  1
  O  O9  1  0.09515747  0.50000000  0.90484253  1
  O  O10  1  0.50000000  0.90484253  0.09515747  1
  O  O11  1  0.90484253  0.09515747  0.50000000  1
  O  O12  1  0.19185076  0.97046529  0.36452886  1
  O  O13  1  0.97046529  0.36452886  0.19185076  1
  O  O14  1  0.36452886  0.19185076  0.97046529  1
  O  O15  1  0.02953471  0.80814924  0.63547114  1
  O  O16  1  0.80814924  0.63547114  0.02953471  1
  O  O17  1  0.63547114  0.02953471  0.80814924  1
  O  O18  1  0.35940661  0.50000000  0.64059339  1
  O  O19  1  0.50000000  0.64059339  0.35940661  1
