# generated using pymatgen
data_Mg2ScTaO6
_symmetry_space_group_name_H-M   'P 1'
_cell_length_a   5.25043261
_cell_length_b   5.25099431
_cell_length_c   5.62246381
_cell_angle_alpha   62.16647375
_cell_angle_beta   62.16757813
_cell_angle_gamma   60.00404950
_symmetry_Int_Tables_number   1
_chemical_formula_structural   Mg2ScTaO6
_chemical_formula_sum   'Mg2 Sc1 Ta1 O6'
_cell_volume   113.06720652
_cell_formula_units_Z   1
loop_
 _symmetry_equiv_pos_site_id
 _symmetry_equiv_pos_as_xyz
  1  'x, y, z'
loop_
 _atom_site_type_symbol
 _atom_site_label
 _atom_site_symmetry_multiplicity
 _atom_site_fract_x
 _atom_site_fract_y
 _atom_site_fract_z
 _atom_site_occupancy
  Mg  Mg0  1  0.52249313  0.52236953  0.43266533  1
  Mg  Mg1  1  0.02353914  0.02335381  0.92956099  1
  Sc  Sc2  1  0.80976171  0.80979355  0.57066609  1
  Ta  Ta3  1  0.31479695  0.31484133  0.05551078  1
  O  O4  1  0.21728195  0.94016654  0.24846313  1
  O  O5  1  0.94015631  0.59422616  0.24839345  1
  O  O6  1  0.59412935  0.21730346  0.24844241  1
  O  O7  1  0.70489452  0.11532319  0.76047577  1
  O  O8  1  0.11521474  0.41931585  0.76052698  1
  O  O9  1  0.41933318  0.70490760  0.76049607  1
