# generated using pymatgen
data_AlHO
_symmetry_space_group_name_H-M   'P 1'
_cell_length_a   4.97980497
_cell_length_b   4.97980497
_cell_length_c   4.91607795
_cell_angle_alpha   76.37233125
_cell_angle_beta   76.37233125
_cell_angle_gamma   33.52995999
_symmetry_Int_Tables_number   1
_chemical_formula_structural   AlHO
_chemical_formula_sum   'Al2 H2 O2'
_cell_volume   65.26983487
_cell_formula_units_Z   2
loop_
 _symmetry_equiv_pos_site_id
 _symmetry_equiv_pos_as_xyz
  1  'x, y, z'
loop_
 _atom_site_type_symbol
 _atom_site_label
 _atom_site_symmetry_multiplicity
 _atom_site_fract_x
 _atom_site_fract_y
 _atom_site_fract_z
 _atom_site_occupancy
  Al  Al0  1  0.19802463  0.19802463  0.18063832  1
  Al  Al1  1  0.52984420  0.52984420  0.75057718  1
  H  H2  1  0.79472369  0.79472369  0.28251589  1
  H  H3  1  0.35430528  0.35430528  0.87339011  1
  O  O4  1  0.61682182  0.61682182  0.02696958  1
  O  O5  1  0.07473037  0.07473037  0.54126892  1
