# generated using pymatgen
data_Rb2BHO2
_symmetry_space_group_name_H-M   'P 1'
_cell_length_a   6.59920507
_cell_length_b   6.59920507
_cell_length_c   6.07279930
_cell_angle_alpha   90.00000000
_cell_angle_beta   90.00000000
_cell_angle_gamma   123.84468839
_symmetry_Int_Tables_number   1
_chemical_formula_structural   Rb2BHO2
_chemical_formula_sum   'Rb4 B2 H2 O4'
_cell_volume   219.65350174
_cell_formula_units_Z   2
loop_
 _symmetry_equiv_pos_site_id
 _symmetry_equiv_pos_as_xyz
  1  'x, y, z'
loop_
 _atom_site_type_symbol
 _atom_site_label
 _atom_site_symmetry_multiplicity
 _atom_site_fract_x
 _atom_site_fract_y
 _atom_site_fract_z
 _atom_site_occupancy
  Rb  Rb0  1  0.10862885  0.40853092  0.77686784  1
  Rb  Rb1  1  0.40853092  0.10862885  0.77686784  1
  Rb  Rb2  1  0.89137115  0.59146908  0.27686784  1
  Rb  Rb3  1  0.59146908  0.89137115  0.27686784  1
  B  B4  1  0.22418716  0.22418716  0.25003247  1
  B  B5  1  0.77581284  0.77581284  0.75003247  1
  H  H6  1  0.92609073  0.92609073  0.60422122  1
  H  H7  1  0.07390927  0.07390927  0.10422122  1
  O  O8  1  0.18278625  0.39628180  0.30938132  1
  O  O9  1  0.39628180  0.18278625  0.30938132  1
  O  O10  1  0.60371820  0.81721375  0.80938132  1
  O  O11  1  0.81721375  0.60371820  0.80938132  1
