# generated using pymatgen
data_BaSn2(HO2)2
_symmetry_space_group_name_H-M   'P 1'
_cell_length_a   7.17400000
_cell_length_b   5.76200000
_cell_length_c   7.59400017
_cell_angle_alpha   90.00000000
_cell_angle_beta   107.62000327
_cell_angle_gamma   90.00000000
_symmetry_Int_Tables_number   1
_chemical_formula_structural   BaSn2(HO2)2
_chemical_formula_sum   'Ba2 Sn4 H4 O8'
_cell_volume   299.18298027
_cell_formula_units_Z   2
loop_
 _symmetry_equiv_pos_site_id
 _symmetry_equiv_pos_as_xyz
  1  'x, y, z'
loop_
 _atom_site_type_symbol
 _atom_site_label
 _atom_site_symmetry_multiplicity
 _atom_site_fract_x
 _atom_site_fract_y
 _atom_site_fract_z
 _atom_site_occupancy
  Ba  Ba0  1  0.81030000  0.50000000  0.56640000  1.0
  Ba  Ba1  1  0.18970000  0.00000000  0.43360000  1.0
  Sn  Sn2  1  0.35010000  0.49600000  0.84790000  1.0
  Sn  Sn3  1  0.64990000  0.99600000  0.15210000  1.0
  Sn  Sn4  1  0.91170000  0.49500000  0.10100000  1.0
  Sn  Sn5  1  0.08830000  0.99500000  0.89900000  1.0
  H  H6  1  0.36700000  0.50000000  0.56000000  1.0
  H  H7  1  0.63300000  0.00000000  0.44000000  1.0
  H  H8  1  0.29300000  0.50000000  0.20000000  1.0
  H  H9  1  0.70700000  0.00000000  0.80000000  1.0
  O  O10  1  0.86500000  0.74800000  0.27400000  1.0
  O  O11  1  0.13500000  0.24800000  0.72600000  1.0
  O  O12  1  0.16400000  0.74700000  0.72100000  1.0
  O  O13  1  0.83600000  0.24700000  0.27900000  1.0
  O  O14  1  0.46700000  0.47800000  0.63000000  1.0
  O  O15  1  0.53300000  0.97800000  0.37000000  1.0
  O  O16  1  0.20400000  0.49600000  0.28500000  1.0
  O  O17  1  0.79600000  0.99600000  0.71500000  1.0
