# generated using pymatgen
data_BBrO
_symmetry_space_group_name_H-M   'P 1'
_cell_length_a   4.46955034
_cell_length_b   4.48986034
_cell_length_c   19.23221220
_cell_angle_alpha   90.00000000
_cell_angle_beta   90.00000000
_cell_angle_gamma   90.00000000
_symmetry_Int_Tables_number   1
_chemical_formula_structural   BBrO
_chemical_formula_sum   'B2 Br2 O2'
_cell_volume   385.94543411
_cell_formula_units_Z   2
loop_
 _symmetry_equiv_pos_site_id
 _symmetry_equiv_pos_as_xyz
  1  'x, y, z'
loop_
 _atom_site_type_symbol
 _atom_site_label
 _atom_site_symmetry_multiplicity
 _atom_site_fract_x
 _atom_site_fract_y
 _atom_site_fract_z
 _atom_site_occupancy
  B  B0  1  0.79709000  0.42611359  0.52797981  1
  B  B1  1  0.29709000  0.57388642  0.47202019  1
  Br  Br2  1  0.91398000  0.20490679  0.61002926  1
  Br  Br3  1  0.41398000  0.79509321  0.38997074  1
  O  O4  1  0.49581000  0.45510653  0.51792988  1
  O  O5  1  0.99581000  0.54489347  0.48207012  1
