# generated using pymatgen
data_Cs2BHO2
_symmetry_space_group_name_H-M   'P 1'
_cell_length_a   6.95925152
_cell_length_b   6.95925152
_cell_length_c   6.38685100
_cell_angle_alpha   90.00000000
_cell_angle_beta   90.00000000
_cell_angle_gamma   124.60011417
_symmetry_Int_Tables_number   1
_chemical_formula_structural   Cs2BHO2
_chemical_formula_sum   'Cs4 B2 H2 O4'
_cell_volume   254.61444815
_cell_formula_units_Z   2
loop_
 _symmetry_equiv_pos_site_id
 _symmetry_equiv_pos_as_xyz
  1  'x, y, z'
loop_
 _atom_site_type_symbol
 _atom_site_label
 _atom_site_symmetry_multiplicity
 _atom_site_fract_x
 _atom_site_fract_y
 _atom_site_fract_z
 _atom_site_occupancy
  Cs  Cs0  1  0.10489877  0.40628436  0.77302577  1
  Cs  Cs1  1  0.40628436  0.10489877  0.77302577  1
  Cs  Cs2  1  0.89510123  0.59371564  0.27302577  1
  Cs  Cs3  1  0.59371564  0.89510123  0.27302577  1
  B  B4  1  0.22857519  0.22857519  0.25148395  1
  B  B5  1  0.77142481  0.77142481  0.75148395  1
  H  H6  1  0.91532558  0.91532558  0.61122665  1
  H  H7  1  0.08467442  0.08467442  0.11122665  1
  O  O8  1  0.18929447  0.39112311  0.30899493  1
  O  O9  1  0.39112311  0.18929447  0.30899493  1
  O  O10  1  0.60887689  0.81070553  0.80899493  1
  O  O11  1  0.81070553  0.60887689  0.80899493  1
