# generated using pymatgen
data_LiGaBr4
_symmetry_space_group_name_H-M   'P 1'
_cell_length_a   6.90483413
_cell_length_b   6.90483413
_cell_length_c   6.90483413
_cell_angle_alpha   125.83122923
_cell_angle_beta   125.83122923
_cell_angle_gamma   80.16570347
_symmetry_Int_Tables_number   1
_chemical_formula_structural   LiGaBr4
_chemical_formula_sum   'Li1 Ga1 Br4'
_cell_volume   208.85536387
_cell_formula_units_Z   1
loop_
 _symmetry_equiv_pos_site_id
 _symmetry_equiv_pos_as_xyz
  1  'x, y, z'
loop_
 _atom_site_type_symbol
 _atom_site_label
 _atom_site_symmetry_multiplicity
 _atom_site_fract_x
 _atom_site_fract_y
 _atom_site_fract_z
 _atom_site_occupancy
  Li  Li0  1  0.75000000  0.25000000  0.50000000  1
  Ga  Ga1  1  0.50000000  0.50000000  1.00000000  1
  Br  Br2  1  0.40756430  0.40444038  0.55930937  1
  Br  Br3  1  0.84513101  0.84825493  0.44069063  1
  Br  Br4  1  0.15174507  0.59243570  0.99687608  1
  Br  Br5  1  0.59555962  0.15486899  0.00312392  1
