# generated using pymatgen
data_SbAsO3
_symmetry_space_group_name_H-M   'P 1'
_cell_length_a   19.18225685
_cell_length_b   4.61779929
_cell_length_c   6.98041563
_cell_angle_alpha   53.28846193
_cell_angle_beta   90.00000000
_cell_angle_gamma   90.00000000
_symmetry_Int_Tables_number   1
_chemical_formula_structural   SbAsO3
_chemical_formula_sum   'Sb2 As2 O6'
_cell_volume   495.68262234
_cell_formula_units_Z   2
loop_
 _symmetry_equiv_pos_site_id
 _symmetry_equiv_pos_as_xyz
  1  'x, y, z'
loop_
 _atom_site_type_symbol
 _atom_site_label
 _atom_site_symmetry_multiplicity
 _atom_site_fract_x
 _atom_site_fract_y
 _atom_site_fract_z
 _atom_site_occupancy
  Sb  Sb0  1  0.57079774  0.89730290  0.57986771  1
  Sb  Sb1  1  0.42920226  0.89730290  0.07986771  1
  As  As2  1  0.60901368  0.00205789  0.99500798  1
  As  As3  1  0.39098632  0.00205789  0.49500798  1
  O  O4  1  0.60588180  0.70095771  0.91002862  1
  O  O5  1  0.39411820  0.70095771  0.41002862  1
  O  O6  1  0.47037153  0.86560427  0.67203759  1
  O  O7  1  0.52962847  0.86560427  0.17203759  1
  O  O8  1  0.57854660  0.37537723  0.69784810  1
  O  O9  1  0.42145340  0.37537723  0.19784810  1
