# generated using pymatgen
data_TlP4N7
_symmetry_space_group_name_H-M   'P 1'
_cell_length_a   4.71713340
_cell_length_b   5.02742666
_cell_length_c   12.33212723
_cell_angle_alpha   90.00000000
_cell_angle_beta   90.00000000
_cell_angle_gamma   90.00000000
_symmetry_Int_Tables_number   1
_chemical_formula_structural   TlP4N7
_chemical_formula_sum   'Tl2 P8 N14'
_cell_volume   292.45691784
_cell_formula_units_Z   2
loop_
 _symmetry_equiv_pos_site_id
 _symmetry_equiv_pos_as_xyz
  1  'x, y, z'
loop_
 _atom_site_type_symbol
 _atom_site_label
 _atom_site_symmetry_multiplicity
 _atom_site_fract_x
 _atom_site_fract_y
 _atom_site_fract_z
 _atom_site_occupancy
  Tl  Tl0  1  0.59520338  0.79360077  0.50000000  1
  Tl  Tl1  1  0.09520338  0.20639923  0.00000000  1
  P  P2  1  0.59636257  0.67399485  0.88077151  1
  P  P3  1  0.06888826  0.82229224  0.24754790  1
  P  P4  1  0.56888826  0.17770776  0.25245210  1
  P  P5  1  0.09636257  0.32600515  0.61922849  1
  P  P6  1  0.09636257  0.32600515  0.38077151  1
  P  P7  1  0.59636257  0.67399485  0.11922849  1
  P  P8  1  0.06888826  0.82229224  0.75245210  1
  P  P9  1  0.56888826  0.17770776  0.74754790  1
  N  N10  1  0.92333704  0.75584885  0.13471672  1
  N  N11  1  0.42333704  0.24415115  0.36528328  1
  N  N12  1  0.52753717  0.37094890  0.84803536  1
  N  N13  1  0.02753717  0.62905110  0.65196464  1
  N  N14  1  0.02753717  0.62905110  0.34803536  1
  N  N15  1  0.52753717  0.37094890  0.15196464  1
  N  N16  1  0.42058600  0.88031452  0.78728827  1
  N  N17  1  0.92058600  0.11968548  0.71271173  1
  N  N18  1  0.92058600  0.11968548  0.28728827  1
  N  N19  1  0.42058600  0.88031452  0.21271173  1
  N  N20  1  0.48620256  0.74147566  0.00000000  1
  N  N21  1  0.98620256  0.25852434  0.50000000  1
  N  N22  1  0.92333704  0.75584885  0.86528328  1
  N  N23  1  0.42333704  0.24415115  0.63471672  1
