# generated using pymatgen
data_LiTlBr2
_symmetry_space_group_name_H-M   'P 1'
_cell_length_a   4.06645629
_cell_length_b   4.06686838
_cell_length_c   7.65196226
_cell_angle_alpha   105.33112639
_cell_angle_beta   105.35220216
_cell_angle_gamma   90.19606030
_symmetry_Int_Tables_number   1
_chemical_formula_structural   LiTlBr2
_chemical_formula_sum   'Li1 Tl1 Br2'
_cell_volume   117.32066095
_cell_formula_units_Z   1
loop_
 _symmetry_equiv_pos_site_id
 _symmetry_equiv_pos_as_xyz
  1  'x, y, z'
loop_
 _atom_site_type_symbol
 _atom_site_label
 _atom_site_symmetry_multiplicity
 _atom_site_fract_x
 _atom_site_fract_y
 _atom_site_fract_z
 _atom_site_occupancy
  Li  Li0  1  0.43059756  0.12562975  0.52375658  1
  Tl  Tl1  1  0.68147818  0.87264736  0.02390151  1
  Br  Br2  1  0.04077449  0.23485754  0.74466753  1
  Br  Br3  1  0.32010976  0.51539535  0.30321437  1
