# generated using pymatgen
data_KTlIBr
_symmetry_space_group_name_H-M   'P 1'
_cell_length_a   4.76353524
_cell_length_b   4.76449595
_cell_length_c   8.89300340
_cell_angle_alpha   74.47568964
_cell_angle_beta   74.47709154
_cell_angle_gamma   60.01614330
_symmetry_Int_Tables_number   1
_chemical_formula_structural   KTlIBr
_chemical_formula_sum   'K1 Tl1 I1 Br1'
_cell_volume   166.26292688
_cell_formula_units_Z   1
loop_
 _symmetry_equiv_pos_site_id
 _symmetry_equiv_pos_as_xyz
  1  'x, y, z'
loop_
 _atom_site_type_symbol
 _atom_site_label
 _atom_site_symmetry_multiplicity
 _atom_site_fract_x
 _atom_site_fract_y
 _atom_site_fract_z
 _atom_site_occupancy
  K  K0  1  0.01284897  0.82383077  0.13535149  1
  Tl  Tl1  1  0.85417848  0.66571101  0.61040011  1
  I  I2  1  0.43522860  0.24648103  0.86783576  1
  Br  Br3  1  0.60598395  0.41687717  0.35607265  1
