# generated using pymatgen
data_PbICl
_symmetry_space_group_name_H-M   'P 1'
_cell_length_a   4.52567208
_cell_length_b   4.52567208
_cell_length_c   7.29519003
_cell_angle_alpha   72.66616082
_cell_angle_beta   72.66616082
_cell_angle_gamma   60.08792800
_symmetry_Int_Tables_number   1
_chemical_formula_structural   PbICl
_chemical_formula_sum   'Pb1 I1 Cl1'
_cell_volume   121.60127478
_cell_formula_units_Z   1
loop_
 _symmetry_equiv_pos_site_id
 _symmetry_equiv_pos_as_xyz
  1  'x, y, z'
loop_
 _atom_site_type_symbol
 _atom_site_label
 _atom_site_symmetry_multiplicity
 _atom_site_fract_x
 _atom_site_fract_y
 _atom_site_fract_z
 _atom_site_occupancy
  Pb  Pb0  1  0.72102257  0.72102257  0.98583062  1
  I  I1  1  0.47813583  0.47813583  0.70276031  1
  Cl  Cl2  1  0.98954160  0.98954160  0.18877907  1
