# generated using pymatgen
data_NaGaS2
_symmetry_space_group_name_H-M   'P 1'
_cell_length_a   6.11015090
_cell_length_b   6.20608420
_cell_length_c   6.29131433
_cell_angle_alpha   113.85016984
_cell_angle_beta   119.04397329
_cell_angle_gamma   90.03217600
_symmetry_Int_Tables_number   1
_chemical_formula_structural   NaGaS2
_chemical_formula_sum   'Na2 Ga2 S4'
_cell_volume   184.88456605
_cell_formula_units_Z   2
loop_
 _symmetry_equiv_pos_site_id
 _symmetry_equiv_pos_as_xyz
  1  'x, y, z'
loop_
 _atom_site_type_symbol
 _atom_site_label
 _atom_site_symmetry_multiplicity
 _atom_site_fract_x
 _atom_site_fract_y
 _atom_site_fract_z
 _atom_site_occupancy
  Na  Na0  1  0.02770829  0.75876008  0.69814051  1
  Na  Na1  1  0.78128279  0.02438565  0.20597709  1
  Ga  Ga2  1  0.31242848  0.40570804  0.18356736  1
  Ga  Ga3  1  0.58113549  0.37753626  0.72083761  1
  S  S4  1  0.46955436  0.70362699  0.62863590  1
  S  S5  1  0.97693192  0.33650763  0.76650434  1
  S  S6  1  0.66260282  0.44669215  0.13785336  1
  S  S7  1  0.29277401  0.07962840  0.27578733  1
