# generated using pymatgen
data_GaI2
_symmetry_space_group_name_H-M   'P 1'
_cell_length_a   7.12486518
_cell_length_b   7.12486518
_cell_length_c   7.16766693
_cell_angle_alpha   61.86004049
_cell_angle_beta   61.86004049
_cell_angle_gamma   78.88843709
_symmetry_Int_Tables_number   1
_chemical_formula_structural   GaI2
_chemical_formula_sum   'Ga2 I4'
_cell_volume   282.71717880
_cell_formula_units_Z   2
loop_
 _symmetry_equiv_pos_site_id
 _symmetry_equiv_pos_as_xyz
  1  'x, y, z'
loop_
 _atom_site_type_symbol
 _atom_site_label
 _atom_site_symmetry_multiplicity
 _atom_site_fract_x
 _atom_site_fract_y
 _atom_site_fract_z
 _atom_site_occupancy
  Ga  Ga0  1  0.93912626  0.06087374  0.00000000  1
  Ga  Ga1  1  0.32594829  0.67405171  0.50000000  1
  I  I2  1  0.26444683  0.07008543  0.61658891  1
  I  I3  1  0.92991457  0.73555317  0.38341109  1
  I  I4  1  0.95791689  0.40069285  0.03506930  1
  I  I5  1  0.59930715  0.04208311  0.96493070  1
