# generated using pymatgen
data_Li2In2SiS6
_symmetry_space_group_name_H-M   'P 1'
_cell_length_a   7.08347390
_cell_length_b   7.08347390
_cell_length_c   12.23673582
_cell_angle_alpha   72.80075987
_cell_angle_beta   72.80075987
_cell_angle_gamma   60.42138321
_symmetry_Int_Tables_number   1
_chemical_formula_structural   Li2In2SiS6
_chemical_formula_sum   'Li4 In4 Si2 S12'
_cell_volume   501.73932810
_cell_formula_units_Z   2
loop_
 _symmetry_equiv_pos_site_id
 _symmetry_equiv_pos_as_xyz
  1  'x, y, z'
loop_
 _atom_site_type_symbol
 _atom_site_label
 _atom_site_symmetry_multiplicity
 _atom_site_fract_x
 _atom_site_fract_y
 _atom_site_fract_z
 _atom_site_occupancy
  Li  Li0  1  0.59767000  0.98489400  0.15765900  1
  Li  Li1  1  0.98489400  0.59767000  0.65765900  1
  Li  Li2  1  0.60046200  0.40248300  0.50289000  1
  Li  Li3  1  0.40248300  0.60046200  0.00289000  1
  In  In4  1  0.88088100  0.07596400  0.81185900  1
  In  In5  1  0.07596400  0.88088100  0.31185900  1
  In  In6  1  0.22773400  0.08754700  0.50694700  1
  In  In7  1  0.08754700  0.22773400  0.00694700  1
  Si  Si8  1  0.45759400  0.99355700  0.75232900  1
  Si  Si9  1  0.99355700  0.45759400  0.25232900  1
  S  S10  1  0.73899700  0.22971400  0.99462100  1
  S  S11  1  0.22971400  0.73899700  0.49462100  1
  S  S12  1  0.33415600  0.87573400  0.12110700  1
  S  S13  1  0.87573400  0.33415600  0.62110700  1
  S  S14  1  0.28476600  0.79737200  0.80698500  1
  S  S15  1  0.79737200  0.28476600  0.30698500  1
  S  S16  1  0.28065100  0.30877000  0.80171400  1
  S  S17  1  0.30877000  0.28065100  0.30171400  1
  S  S18  1  0.74947600  0.79620800  0.82733100  1
  S  S19  1  0.79620800  0.74947600  0.32733100  1
  S  S20  1  0.56008000  0.03929300  0.56757800  1
  S  S21  1  0.03929300  0.56008000  0.06757800  1
