# generated using pymatgen
data_Li2In2GeS6
_symmetry_space_group_name_H-M   'P 1'
_cell_length_a   7.16995589
_cell_length_b   7.16995589
_cell_length_c   12.33605232
_cell_angle_alpha   72.70399564
_cell_angle_beta   72.70399564
_cell_angle_gamma   60.48643531
_symmetry_Int_Tables_number   1
_chemical_formula_structural   Li2In2GeS6
_chemical_formula_sum   'Li4 In4 Ge2 S12'
_cell_volume   518.17222144
_cell_formula_units_Z   2
loop_
 _symmetry_equiv_pos_site_id
 _symmetry_equiv_pos_as_xyz
  1  'x, y, z'
loop_
 _atom_site_type_symbol
 _atom_site_label
 _atom_site_symmetry_multiplicity
 _atom_site_fract_x
 _atom_site_fract_y
 _atom_site_fract_z
 _atom_site_occupancy
  Li  Li0  1  0.40895500  0.00407600  0.84053200  1
  Li  Li1  1  0.00407600  0.40895500  0.34053200  1
  Li  Li2  1  0.39881000  0.60065600  0.49616000  1
  Li  Li3  1  0.60065600  0.39881000  0.99616000  1
  In  In4  1  0.11464200  0.92767500  0.18742300  1
  In  In5  1  0.92767500  0.11464200  0.68742300  1
  In  In6  1  0.76934700  0.91713500  0.49332900  1
  In  In7  1  0.91713500  0.76934700  0.99332900  1
  Ge  Ge8  1  0.54015200  0.00728000  0.24826200  1
  Ge  Ge9  1  0.00728000  0.54015200  0.74826200  1
  S  S10  1  0.25995400  0.76864400  0.00766400  1
  S  S11  1  0.76864400  0.25995400  0.50766400  1
  S  S12  1  0.67405800  0.11643900  0.87830900  1
  S  S13  1  0.11643900  0.67405800  0.37830900  1
  S  S14  1  0.71888300  0.20886700  0.19160100  1
  S  S15  1  0.20886700  0.71888300  0.69160100  1
  S  S16  1  0.72257100  0.68425100  0.19571200  1
  S  S17  1  0.68425100  0.72257100  0.69571200  1
  S  S18  1  0.23922800  0.20876500  0.17154700  1
  S  S19  1  0.20876500  0.23922800  0.67154700  1
  S  S20  1  0.43785900  0.95935100  0.43902200  1
  S  S21  1  0.95935100  0.43785900  0.93902200  1
