# generated using pymatgen
data_Rb2S3
_symmetry_space_group_name_H-M   'P 1'
_cell_length_a   6.40479886
_cell_length_b   6.40479886
_cell_length_c   7.76900000
_cell_angle_alpha   90.00000000
_cell_angle_beta   90.00000000
_cell_angle_gamma   108.18005415
_symmetry_Int_Tables_number   1
_chemical_formula_structural   Rb2S3
_chemical_formula_sum   'Rb4 S6'
_cell_volume   302.78657772
_cell_formula_units_Z   2
loop_
 _symmetry_equiv_pos_site_id
 _symmetry_equiv_pos_as_xyz
  1  'x, y, z'
loop_
 _atom_site_type_symbol
 _atom_site_label
 _atom_site_symmetry_multiplicity
 _atom_site_fract_x
 _atom_site_fract_y
 _atom_site_fract_z
 _atom_site_occupancy
  Rb  Rb0  1  0.57000000  0.43000000  0.81670000  1.0
  Rb  Rb1  1  0.43000000  0.57000000  0.31670000  1.0
  Rb  Rb2  1  0.10490000  0.89510000  0.53910000  1.0
  Rb  Rb3  1  0.89510000  0.10490000  0.03910000  1.0
  S  S4  1  0.61450000  0.93710000  0.65080000  1.0
  S  S5  1  0.38550000  0.06290000  0.15080000  1.0
  S  S6  1  0.06290000  0.38550000  0.65080000  1.0
  S  S7  1  0.93710000  0.61450000  0.15080000  1.0
  S  S8  1  0.20530000  0.79470000  0.00000000  1.0
  S  S9  1  0.79470000  0.20530000  0.50000000  1.0
