# generated using pymatgen
data_CsZnTeH
_symmetry_space_group_name_H-M   'P 1'
_cell_length_a   7.29503790
_cell_length_b   7.29503790
_cell_length_c   7.29503790
_cell_angle_alpha   35.76357824
_cell_angle_beta   35.76357824
_cell_angle_gamma   35.76357824
_symmetry_Int_Tables_number   1
_chemical_formula_structural   CsZnTeH
_chemical_formula_sum   'Cs1 Zn1 Te1 H1'
_cell_volume   118.55805207
_cell_formula_units_Z   1
loop_
 _symmetry_equiv_pos_site_id
 _symmetry_equiv_pos_as_xyz
  1  'x, y, z'
loop_
 _atom_site_type_symbol
 _atom_site_label
 _atom_site_symmetry_multiplicity
 _atom_site_fract_x
 _atom_site_fract_y
 _atom_site_fract_z
 _atom_site_occupancy
  Cs  Cs0  1  0.29497826  0.29497826  0.29497826  1
  Zn  Zn1  1  0.81452287  0.81452287  0.81452287  1
  Te  Te2  1  0.10213306  0.10213306  0.10213306  1
  H  H3  1  0.89456581  0.89456581  0.89456581  1
