# generated using pymatgen
data_Al4SnTe7
_symmetry_space_group_name_H-M   'P 1'
_cell_length_a   6.90519072
_cell_length_b   7.33833115
_cell_length_c   16.85592740
_cell_angle_alpha   90.00000000
_cell_angle_beta   90.00000000
_cell_angle_gamma   90.00000000
_symmetry_Int_Tables_number   1
_chemical_formula_structural   Al4SnTe7
_chemical_formula_sum   'Al8 Sn2 Te14'
_cell_volume   854.13326488
_cell_formula_units_Z   2
loop_
 _symmetry_equiv_pos_site_id
 _symmetry_equiv_pos_as_xyz
  1  'x, y, z'
loop_
 _atom_site_type_symbol
 _atom_site_label
 _atom_site_symmetry_multiplicity
 _atom_site_fract_x
 _atom_site_fract_y
 _atom_site_fract_z
 _atom_site_occupancy
  Al  Al0  1  0.58566581  0.66168116  0.87493179  1
  Al  Al1  1  0.07781664  0.82080987  0.25298898  1
  Al  Al2  1  0.57781664  0.17919013  0.24701102  1
  Al  Al3  1  0.08566581  0.33831884  0.62506821  1
  Al  Al4  1  0.08566581  0.33831884  0.37493179  1
  Al  Al5  1  0.58566581  0.66168116  0.12506821  1
  Al  Al6  1  0.07781664  0.82080987  0.74701102  1
  Al  Al7  1  0.57781664  0.17919013  0.75298898  1
  Sn  Sn8  1  0.54876866  0.05277126  0.50000000  1
  Sn  Sn9  1  0.04876866  0.94722874  0.00000000  1
  Te  Te10  1  0.97466904  0.65436962  0.11904761  1
  Te  Te11  1  0.47466904  0.34563038  0.38095239  1
  Te  Te12  1  0.45290115  0.33164560  0.88132119  1
  Te  Te13  1  0.95290115  0.66835440  0.61867881  1
  Te  Te14  1  0.95290115  0.66835440  0.38132119  1
  Te  Te15  1  0.45290115  0.33164560  0.11867881  1
  Te  Te16  1  0.46881563  0.82935095  0.74129099  1
  Te  Te17  1  0.96881563  0.17064905  0.75870901  1
  Te  Te18  1  0.96881563  0.17064905  0.24129099  1
  Te  Te19  1  0.46881563  0.82935095  0.25870901  1
  Te  Te20  1  0.48632380  0.86451706  0.00000000  1
  Te  Te21  1  0.98632380  0.13548294  0.50000000  1
  Te  Te22  1  0.97466904  0.65436962  0.88095239  1
  Te  Te23  1  0.47466904  0.34563038  0.61904761  1
