# generated using pymatgen
data_LiSnSe2
_symmetry_space_group_name_H-M   'P 1'
_cell_length_a   6.69993558
_cell_length_b   6.69993558
_cell_length_c   6.43058514
_cell_angle_alpha   64.31441283
_cell_angle_beta   64.31441283
_cell_angle_gamma   96.00879717
_symmetry_Int_Tables_number   1
_chemical_formula_structural   LiSnSe2
_chemical_formula_sum   'Li2 Sn2 Se4'
_cell_volume   218.69621017
_cell_formula_units_Z   2
loop_
 _symmetry_equiv_pos_site_id
 _symmetry_equiv_pos_as_xyz
  1  'x, y, z'
loop_
 _atom_site_type_symbol
 _atom_site_label
 _atom_site_symmetry_multiplicity
 _atom_site_fract_x
 _atom_site_fract_y
 _atom_site_fract_z
 _atom_site_occupancy
  Li  Li0  1  0.75750457  0.24790820  0.49348113  1
  Li  Li1  1  0.24790820  0.75750457  0.49348113  1
  Sn  Sn2  1  0.48869871  0.48869871  0.02082949  1
  Sn  Sn3  1  0.07205675  0.07205675  0.94094467  1
  Se  Se4  1  0.48219872  0.48219872  0.62381132  1
  Se  Se5  1  0.45039802  0.87630933  0.98368886  1
  Se  Se6  1  0.87630933  0.45039802  0.98368886  1
  Se  Se7  1  0.12488170  0.12488170  0.46012354  1
