# generated using pymatgen
data_HgBi4S7
_symmetry_space_group_name_H-M   'P 1'
_cell_length_a   7.19431036
_cell_length_b   7.19431036
_cell_length_c   11.89180782
_cell_angle_alpha   73.60010599
_cell_angle_beta   73.60010599
_cell_angle_gamma   32.79874755
_symmetry_Int_Tables_number   1
_chemical_formula_structural   HgBi4S7
_chemical_formula_sum   'Hg1 Bi4 S7'
_cell_volume   318.64168707
_cell_formula_units_Z   1
loop_
 _symmetry_equiv_pos_site_id
 _symmetry_equiv_pos_as_xyz
  1  'x, y, z'
loop_
 _atom_site_type_symbol
 _atom_site_label
 _atom_site_symmetry_multiplicity
 _atom_site_fract_x
 _atom_site_fract_y
 _atom_site_fract_z
 _atom_site_occupancy
  Hg  Hg0  1  0.10902071  0.10902071  0.57630960  1
  Bi  Bi1  1  0.34688809  0.34688809  0.74662561  1
  Bi  Bi2  1  0.69568595  0.69568596  0.15798514  1
  Bi  Bi3  1  0.00658020  0.00658020  0.00994874  1
  Bi  Bi4  1  0.86046123  0.86046124  0.44135131  1
  S  S5  1  0.23563614  0.23563614  0.38526710  1
  S  S6  1  0.74219079  0.74219079  0.66022326  1
  S  S7  1  0.65658172  0.65658173  0.95283971  1
  S  S8  1  0.35009504  0.35009504  0.05384839  1
  S  S9  1  0.98304938  0.98304938  0.77011971  1
  S  S10  1  0.04990483  0.04990483  0.21987646  1
  S  S11  1  0.46390295  0.46390296  0.52560497  1
