# generated using pymatgen
data_GaTeBr
_symmetry_space_group_name_H-M   'P 1'
_cell_length_a   4.16766385
_cell_length_b   4.16766385
_cell_length_c   7.27342000
_cell_angle_alpha   83.24484767
_cell_angle_beta   83.24484767
_cell_angle_gamma   60.04550391
_symmetry_Int_Tables_number   1
_chemical_formula_structural   GaTeBr
_chemical_formula_sum   'Ga1 Te1 Br1'
_cell_volume   108.44471409
_cell_formula_units_Z   1
loop_
 _symmetry_equiv_pos_site_id
 _symmetry_equiv_pos_as_xyz
  1  'x, y, z'
loop_
 _atom_site_type_symbol
 _atom_site_label
 _atom_site_symmetry_multiplicity
 _atom_site_fract_x
 _atom_site_fract_y
 _atom_site_fract_z
 _atom_site_occupancy
  Ga  Ga0  1  0.27830000  0.27830000  0.18780000  1
  Te  Te1  1  0.92181000  0.92181000  0.35675000  1
  Br  Br2  1  0.32258000  0.32258000  0.86764000  1
