# generated using pymatgen
data_SiAg2GeSe4
_symmetry_space_group_name_H-M   'P 1'
_cell_length_a   6.49803342
_cell_length_b   6.92327866
_cell_length_c   9.22797908
_cell_angle_alpha   90.00000000
_cell_angle_beta   90.00000000
_cell_angle_gamma   90.00000000
_symmetry_Int_Tables_number   1
_chemical_formula_structural   SiAg2GeSe4
_chemical_formula_sum   'Si2 Ag4 Ge2 Se8'
_cell_volume   415.14551855
_cell_formula_units_Z   2
loop_
 _symmetry_equiv_pos_site_id
 _symmetry_equiv_pos_as_xyz
  1  'x, y, z'
loop_
 _atom_site_type_symbol
 _atom_site_label
 _atom_site_symmetry_multiplicity
 _atom_site_fract_x
 _atom_site_fract_y
 _atom_site_fract_z
 _atom_site_occupancy
  Si  Si0  1  0.49430779  0.83647945  0.50000000  1
  Si  Si1  1  0.99430779  0.16352055  0.00000000  1
  Ag  Ag2  1  0.50220510  0.30380952  0.25175761  1
  Ag  Ag3  1  0.50220510  0.30380952  0.74824239  1
  Ag  Ag4  1  0.00220510  0.69619048  0.75175761  1
  Ag  Ag5  1  0.00220510  0.69619048  0.24824239  1
  Ge  Ge6  1  0.96403898  0.19681950  0.50000000  1
  Ge  Ge7  1  0.46403898  0.80318050  0.00000000  1
  Se  Se8  1  0.35708841  0.15945848  0.00000000  1
  Se  Se9  1  0.85708841  0.84054152  0.50000000  1
  Se  Se10  1  0.36763098  0.15083051  0.50000000  1
  Se  Se11  1  0.86763098  0.84916949  0.00000000  1
  Se  Se12  1  0.40623382  0.68716998  0.71264795  1
  Se  Se13  1  0.90623382  0.31283002  0.21264795  1
  Se  Se14  1  0.90623382  0.31283002  0.78735205  1
  Se  Se15  1  0.40623382  0.68716998  0.28735205  1
