# generated using pymatgen
data_POF3
_symmetry_space_group_name_H-M   'P 1'
_cell_length_a   4.94529792
_cell_length_b   5.13343376
_cell_length_c   6.62763921
_cell_angle_alpha   90.00727663
_cell_angle_beta   90.01903793
_cell_angle_gamma   90.12927002
_symmetry_Int_Tables_number   1
_chemical_formula_structural   POF3
_chemical_formula_sum   'P2 O2 F6'
_cell_volume   168.25119161
_cell_formula_units_Z   2
loop_
 _symmetry_equiv_pos_site_id
 _symmetry_equiv_pos_as_xyz
  1  'x, y, z'
loop_
 _atom_site_type_symbol
 _atom_site_label
 _atom_site_symmetry_multiplicity
 _atom_site_fract_x
 _atom_site_fract_y
 _atom_site_fract_z
 _atom_site_occupancy
  P  P0  1  0.89978897  0.50389817  0.70076957  1
  P  P1  1  0.39949566  0.14323805  0.20075254  1
  O  O2  1  0.60608150  0.49140210  0.70063877  1
  O  O3  1  0.10578440  0.15490793  0.20066442  1
  F  F4  1  0.54921792  0.40867366  0.20079041  1
  F  F5  1  0.53330538  0.00289060  0.01993726  1
  F  F6  1  0.03395586  0.64473361  0.52006220  1
  F  F7  1  0.04901594  0.23883264  0.70074871  1
  F  F8  1  0.03383481  0.64458284  0.88169926  1
  F  F9  1  0.53327456  0.00295439  0.38164587  1
