# generated using pymatgen
data_NaH2Br3
_symmetry_space_group_name_H-M   'P 1'
_cell_length_a   5.97204851
_cell_length_b   7.81297743
_cell_length_c   7.81403504
_cell_angle_alpha   89.25100506
_cell_angle_beta   90.00000000
_cell_angle_gamma   90.00000000
_symmetry_Int_Tables_number   1
_chemical_formula_structural   NaH2Br3
_chemical_formula_sum   'Na2 H4 Br6'
_cell_volume   364.56766129
_cell_formula_units_Z   2
loop_
 _symmetry_equiv_pos_site_id
 _symmetry_equiv_pos_as_xyz
  1  'x, y, z'
loop_
 _atom_site_type_symbol
 _atom_site_label
 _atom_site_symmetry_multiplicity
 _atom_site_fract_x
 _atom_site_fract_y
 _atom_site_fract_z
 _atom_site_occupancy
  Na  Na0  1  0.99956491  0.63970567  0.63971910  1
  Na  Na1  1  0.49956491  0.36029434  0.36028090  1
  H  H2  1  0.49444173  0.45358919  0.85616871  1
  H  H3  1  0.99444084  0.14386139  0.54637753  1
  H  H4  1  0.49444084  0.85613860  0.45362247  1
  H  H5  1  0.99444173  0.54641081  0.14383129  1
  Br  Br6  1  0.98523111  0.69801305  0.02860574  1
  Br  Br7  1  0.48523042  0.97136259  0.30200468  1
  Br  Br8  1  0.98523042  0.02863741  0.69799532  1
  Br  Br9  1  0.48523111  0.30198694  0.97139426  1
  Br  Br10  1  0.49910178  0.62670638  0.62673845  1
  Br  Br11  1  0.99910178  0.37329362  0.37326155  1
