# generated using pymatgen
data_H2S
_symmetry_space_group_name_H-M   'P 1'
_cell_length_a   7.00720581
_cell_length_b   7.00720581
_cell_length_c   15.72608895
_cell_angle_alpha   90.00000000
_cell_angle_beta   90.00000000
_cell_angle_gamma   120.00000000
_symmetry_Int_Tables_number   1
_chemical_formula_structural   H2S
_chemical_formula_sum   'H6 S3'
_cell_volume   668.71506382
_cell_formula_units_Z   3
loop_
 _symmetry_equiv_pos_site_id
 _symmetry_equiv_pos_as_xyz
  1  'x, y, z'
loop_
 _atom_site_type_symbol
 _atom_site_label
 _atom_site_symmetry_multiplicity
 _atom_site_fract_x
 _atom_site_fract_y
 _atom_site_fract_z
 _atom_site_occupancy
  H  H0  1  0.16254706  0.79155633  0.48460961  1
  H  H1  1  0.20844367  0.37099073  0.48460961  1
  H  H2  1  0.62900927  0.83745294  0.48460961  1
  H  H3  1  0.79155633  0.16254706  0.48460961  1
  H  H4  1  0.37099073  0.20844367  0.48460961  1
  H  H5  1  0.83745294  0.62900927  0.48460961  1
  S  S6  1  0.62838666  0.00000000  0.53078049  1
  S  S7  1  0.00000000  0.62838666  0.53078049  1
  S  S8  1  0.37161334  0.37161334  0.53078049  1
