# generated using pymatgen
data_LiHfPCO7
_symmetry_space_group_name_H-M   'P 1'
_cell_length_a   6.62114895
_cell_length_b   5.67118900
_cell_length_c   9.94480456
_cell_angle_alpha   89.90649042
_cell_angle_beta   90.00000000
_cell_angle_gamma   90.00000000
_symmetry_Int_Tables_number   1
_chemical_formula_structural   LiHfPCO7
_chemical_formula_sum   'Li2 Hf2 P2 C2 O14'
_cell_volume   373.42479645
_cell_formula_units_Z   2
loop_
 _symmetry_equiv_pos_site_id
 _symmetry_equiv_pos_as_xyz
  1  'x, y, z'
loop_
 _atom_site_type_symbol
 _atom_site_label
 _atom_site_symmetry_multiplicity
 _atom_site_fract_x
 _atom_site_fract_y
 _atom_site_fract_z
 _atom_site_occupancy
  Li  Li0  1  0.62372610  0.74904210  0.90197279  1
  Li  Li1  1  0.12372610  0.25095790  0.09802721  1
  Hf  Hf2  1  0.71211773  0.24834114  0.65302107  1
  Hf  Hf3  1  0.21211773  0.75165886  0.34697893  1
  P  P4  1  0.21292099  0.25104666  0.56121065  1
  P  P5  1  0.71292099  0.74895334  0.43878935  1
  C  C6  1  0.77644666  0.24974908  0.91092888  1
  C  C7  1  0.27644666  0.75025092  0.08907112  1
  O  O8  1  0.35784304  0.74948425  0.97687223  1
  O  O9  1  0.73118399  0.05506834  0.84139064  1
  O  O10  1  0.73062144  0.44362816  0.84046917  1
  O  O11  1  0.02378063  0.24902433  0.64955358  1
  O  O12  1  0.40221361  0.24900133  0.65069459  1
  O  O13  1  0.71346725  0.96639176  0.53244058  1
  O  O14  1  0.21352656  0.47246460  0.47027114  1
  O  O15  1  0.71352656  0.52753540  0.52972886  1
  O  O16  1  0.21346725  0.03360824  0.46755942  1
  O  O17  1  0.90221361  0.75099867  0.34930541  1
  O  O18  1  0.52378063  0.75097567  0.35044642  1
  O  O19  1  0.23062144  0.55637184  0.15953083  1
  O  O20  1  0.23118399  0.94493166  0.15860936  1
  O  O21  1  0.85784304  0.25051575  0.02312777  1
