# generated using pymatgen
data_MgHS
_symmetry_space_group_name_H-M   'P 1'
_cell_length_a   4.10318548
_cell_length_b   4.10318548
_cell_length_c   6.63225938
_cell_angle_alpha   89.97630050
_cell_angle_beta   89.97630050
_cell_angle_gamma   59.82979465
_symmetry_Int_Tables_number   1
_chemical_formula_structural   MgHS
_chemical_formula_sum   'Mg2 H2 S2'
_cell_volume   96.53548152
_cell_formula_units_Z   2
loop_
 _symmetry_equiv_pos_site_id
 _symmetry_equiv_pos_as_xyz
  1  'x, y, z'
loop_
 _atom_site_type_symbol
 _atom_site_label
 _atom_site_symmetry_multiplicity
 _atom_site_fract_x
 _atom_site_fract_y
 _atom_site_fract_z
 _atom_site_occupancy
  Mg  Mg0  1  0.10026224  0.10026224  0.85595123  1
  Mg  Mg1  1  0.43087222  0.43087222  0.35898472  1
  H  H2  1  0.76435899  0.76435899  0.04576297  1
  H  H3  1  0.76705842  0.76705842  0.93146704  1
  S  S4  1  0.43297323  0.43297323  0.72835238  1
  S  S5  1  0.09842490  0.09842490  0.24011166  1
