# generated using pymatgen
data_As2O3
_symmetry_space_group_name_H-M   'P 1'
_cell_length_a   18.96299758
_cell_length_b   4.65311148
_cell_length_c   7.04169428
_cell_angle_alpha   52.27536817
_cell_angle_beta   90.00000000
_cell_angle_gamma   90.00000000
_symmetry_Int_Tables_number   1
_chemical_formula_structural   As2O3
_chemical_formula_sum   'As4 O6'
_cell_volume   491.45351081
_cell_formula_units_Z   2
loop_
 _symmetry_equiv_pos_site_id
 _symmetry_equiv_pos_as_xyz
  1  'x, y, z'
loop_
 _atom_site_type_symbol
 _atom_site_label
 _atom_site_symmetry_multiplicity
 _atom_site_fract_x
 _atom_site_fract_y
 _atom_site_fract_z
 _atom_site_occupancy
  As  As0  1  0.60449291  0.00088552  0.99439766  1
  As  As1  1  0.39550709  0.00088552  0.49439766  1
  As  As2  1  0.43091735  0.86294874  0.10438448  1
  As  As3  1  0.56908265  0.86294874  0.60438448  1
  O  O4  1  0.52436991  0.85695053  0.17138164  1
  O  O5  1  0.47563009  0.85695053  0.67138164  1
  O  O6  1  0.39771169  0.71894106  0.39623297  1
  O  O7  1  0.60228831  0.71894106  0.89623297  1
  O  O8  1  0.57715668  0.40268416  0.69753325  1
  O  O9  1  0.42284332  0.40268416  0.19753325  1
