# generated using pymatgen
data_Na2MgTiO4
_symmetry_space_group_name_H-M   'P 1'
_cell_length_a   5.46673994
_cell_length_b   6.29946901
_cell_length_c   6.60505188
_cell_angle_alpha   90.00000000
_cell_angle_beta   90.00000000
_cell_angle_gamma   90.00000000
_symmetry_Int_Tables_number   1
_chemical_formula_structural   Na2MgTiO4
_chemical_formula_sum   'Na4 Mg2 Ti2 O8'
_cell_volume   227.46186274
_cell_formula_units_Z   2
loop_
 _symmetry_equiv_pos_site_id
 _symmetry_equiv_pos_as_xyz
  1  'x, y, z'
loop_
 _atom_site_type_symbol
 _atom_site_label
 _atom_site_symmetry_multiplicity
 _atom_site_fract_x
 _atom_site_fract_y
 _atom_site_fract_z
 _atom_site_occupancy
  Na  Na0  1  0.48718997  0.33462867  0.25157021  1
  Na  Na1  1  0.48718997  0.33462867  0.74842979  1
  Na  Na2  1  0.98718997  0.66537133  0.75157021  1
  Na  Na3  1  0.98718997  0.66537133  0.24842979  1
  Mg  Mg4  1  0.99790545  0.15207603  0.50000000  1
  Mg  Mg5  1  0.49790545  0.84792397  0.00000000  1
  Ti  Ti6  1  0.50007783  0.84288860  0.50000000  1
  Ti  Ti7  1  0.00007783  0.15711140  0.00000000  1
  O  O8  1  0.33108795  0.12548479  0.00000000  1
  O  O9  1  0.83108795  0.87451521  0.50000000  1
  O  O10  1  0.35779634  0.10539380  0.50000000  1
  O  O11  1  0.85779634  0.89460620  0.00000000  1
  O  O12  1  0.41934825  0.69848215  0.73692587  1
  O  O13  1  0.91934825  0.30151785  0.23692587  1
  O  O14  1  0.91934825  0.30151785  0.76307413  1
  O  O15  1  0.41934825  0.69848215  0.26307413  1
