# generated using pymatgen
data_HI
_symmetry_space_group_name_H-M   'P 1'
_cell_length_a   4.65320855
_cell_length_b   4.65320855
_cell_length_c   5.89600000
_cell_angle_alpha   90.00000000
_cell_angle_beta   90.00000000
_cell_angle_gamma   100.78807027
_symmetry_Int_Tables_number   1
_chemical_formula_structural   HI
_chemical_formula_sum   'H2 I2'
_cell_volume   125.40598283
_cell_formula_units_Z   2
loop_
 _symmetry_equiv_pos_site_id
 _symmetry_equiv_pos_as_xyz
  1  'x, y, z'
loop_
 _atom_site_type_symbol
 _atom_site_label
 _atom_site_symmetry_multiplicity
 _atom_site_fract_x
 _atom_site_fract_y
 _atom_site_fract_z
 _atom_site_occupancy
  H  H0  1  0.21999000  0.71999000  0.44856000  1
  H  H1  1  0.71999000  0.21999000  0.55144000  1
  I  I2  1  0.41533000  0.91533000  0.24520000  1
  I  I3  1  0.91533000  0.41533000  0.75480000  1
