# generated using pymatgen
data_NaLi(GeCl3)2
_symmetry_space_group_name_H-M   'P 1'
_cell_length_a   7.01540457
_cell_length_b   7.01722406
_cell_length_c   7.81741507
_cell_angle_alpha   90.05280942
_cell_angle_beta   116.65081257
_cell_angle_gamma   119.98572760
_symmetry_Int_Tables_number   1
_chemical_formula_structural   NaLi(GeCl3)2
_chemical_formula_sum   'Na1 Li1 Ge2 Cl6'
_cell_volume   285.04291183
_cell_formula_units_Z   1
loop_
 _symmetry_equiv_pos_site_id
 _symmetry_equiv_pos_as_xyz
  1  'x, y, z'
loop_
 _atom_site_type_symbol
 _atom_site_label
 _atom_site_symmetry_multiplicity
 _atom_site_fract_x
 _atom_site_fract_y
 _atom_site_fract_z
 _atom_site_occupancy
  Na  Na0  1  0.64504110  0.82259586  0.46747237  1
  Li  Li1  1  0.63913685  0.31991555  0.95862727  1
  Ge  Ge2  1  0.97544565  0.48770151  0.46326761  1
  Ge  Ge3  1  0.98875787  0.99461422  0.98302990  1
  Cl  Cl4  1  0.60415604  0.99015411  0.78017269  1
  Cl  Cl5  1  0.79021290  0.61423183  0.78025765  1
  Cl  Cl6  1  0.16612597  0.17600210  0.78019610  1
  Cl  Cl7  1  0.58213641  0.12259268  0.25727941  1
  Cl  Cl8  1  0.13457480  0.45917733  0.25745078  1
  Cl  Cl9  1  0.79761040  0.67461580  0.25704521  1
