# generated using pymatgen
data_Li2TiO3
_symmetry_space_group_name_H-M   'P 1'
_cell_length_a   5.15263726
_cell_length_b   5.15263726
_cell_length_c   5.15263726
_cell_angle_alpha   146.96299635
_cell_angle_beta   133.21335059
_cell_angle_gamma   58.46390586
_symmetry_Int_Tables_number   1
_chemical_formula_structural   Li2TiO3
_chemical_formula_sum   'Li2 Ti1 O3'
_cell_volume   53.90623710
_cell_formula_units_Z   1
loop_
 _symmetry_equiv_pos_site_id
 _symmetry_equiv_pos_as_xyz
  1  'x, y, z'
loop_
 _atom_site_type_symbol
 _atom_site_label
 _atom_site_symmetry_multiplicity
 _atom_site_fract_x
 _atom_site_fract_y
 _atom_site_fract_z
 _atom_site_occupancy
  Li  Li0  1  0.17039816  0.67229490  0.49810326  1
  Li  Li1  1  0.82580836  0.32770510  0.49810326  1
  Ti  Ti2  1  0.46513037  -0.00000000  0.46513037  1
  O  O3  1  0.35757355  0.35185404  0.00571952  1
  O  O4  1  0.01847115  -0.00000000  0.01847115  1
  O  O5  1  0.65386548  0.64814597  0.00571952  1
