# generated using pymatgen
data_SbSeBr
_symmetry_space_group_name_H-M   'P 1'
_cell_length_a   4.07493880
_cell_length_b   4.07493880
_cell_length_c   7.49757207
_cell_angle_alpha   74.56787241
_cell_angle_beta   74.56787241
_cell_angle_gamma   60.01143455
_symmetry_Int_Tables_number   1
_chemical_formula_structural   SbSeBr
_chemical_formula_sum   'Sb1 Se1 Br1'
_cell_volume   102.61402167
_cell_formula_units_Z   1
loop_
 _symmetry_equiv_pos_site_id
 _symmetry_equiv_pos_as_xyz
  1  'x, y, z'
loop_
 _atom_site_type_symbol
 _atom_site_label
 _atom_site_symmetry_multiplicity
 _atom_site_fract_x
 _atom_site_fract_y
 _atom_site_fract_z
 _atom_site_occupancy
  Sb  Sb0  1  0.54150790  0.54150790  0.00585852  1
  Se  Se1  1  0.27835694  0.27835694  0.79095618  1
  Br  Br2  1  0.78805516  0.78805516  0.27228529  1
