# generated using pymatgen
data_BSeF
_symmetry_space_group_name_H-M   'P 1'
_cell_length_a   3.31886240
_cell_length_b   4.77905516
_cell_length_c   6.61770721
_cell_angle_alpha   85.40601284
_cell_angle_beta   90.00000000
_cell_angle_gamma   90.00000000
_symmetry_Int_Tables_number   1
_chemical_formula_structural   BSeF
_chemical_formula_sum   'B2 Se2 F2'
_cell_volume   104.62641154
_cell_formula_units_Z   2
loop_
 _symmetry_equiv_pos_site_id
 _symmetry_equiv_pos_as_xyz
  1  'x, y, z'
loop_
 _atom_site_type_symbol
 _atom_site_label
 _atom_site_symmetry_multiplicity
 _atom_site_fract_x
 _atom_site_fract_y
 _atom_site_fract_z
 _atom_site_occupancy
  B  B0  1  0.50000000  0.13198278  0.21609246  1
  B  B1  1  0.00000000  0.60428637  0.46746856  1
  Se  Se2  1  0.00000000  0.40927490  0.19392369  1
  Se  Se3  1  0.50000000  0.87651053  0.48989566  1
  F  F4  1  0.50000000  0.98335025  0.04761537  1
  F  F5  1  0.00000000  0.41856516  0.63629425  1
