# generated using pymatgen
data_NaNO2
_symmetry_space_group_name_H-M   'P 1'
_cell_length_a   3.50240000
_cell_length_b   4.23319347
_cell_length_c   4.23319347
_cell_angle_alpha   78.88805899
_cell_angle_beta   65.56359651
_cell_angle_gamma   65.56359651
_symmetry_Int_Tables_number   1
_chemical_formula_structural   NaNO2
_chemical_formula_sum   'Na1 N1 O2'
_cell_volume   52.00428143
_cell_formula_units_Z   1
loop_
 _symmetry_equiv_pos_site_id
 _symmetry_equiv_pos_as_xyz
  1  'x, y, z'
loop_
 _atom_site_type_symbol
 _atom_site_label
 _atom_site_symmetry_multiplicity
 _atom_site_fract_x
 _atom_site_fract_y
 _atom_site_fract_z
 _atom_site_occupancy
  Na  Na1  1  0.58833000  0.41167000  0.41167000  1.0
  N  N0  1  0.12277000  0.87723000  0.87723000  1.0
  O  O2  1  0.00000000  0.80354000  0.19646000  1.0
  O  O3  1  0.00000000  0.19646000  0.80354000  1.0
