# generated using pymatgen
data_Al2(ZnS2)3
_symmetry_space_group_name_H-M   'P 1'
_cell_length_a   7.26054343
_cell_length_b   7.26054343
_cell_length_c   7.26054343
_cell_angle_alpha   54.16356207
_cell_angle_beta   54.16356207
_cell_angle_gamma   54.16356207
_symmetry_Int_Tables_number   1
_chemical_formula_structural   Al2(ZnS2)3
_chemical_formula_sum   'Al2 Zn3 S6'
_cell_volume   233.76764876
_cell_formula_units_Z   1
loop_
 _symmetry_equiv_pos_site_id
 _symmetry_equiv_pos_as_xyz
  1  'x, y, z'
loop_
 _atom_site_type_symbol
 _atom_site_label
 _atom_site_symmetry_multiplicity
 _atom_site_fract_x
 _atom_site_fract_y
 _atom_site_fract_z
 _atom_site_occupancy
  Al  Al0  1  0.99923300  0.99923300  0.99923300  1
  Al  Al1  1  0.33611800  0.33611800  0.33611800  1
  Zn  Zn2  1  0.18467900  0.49511500  0.81899500  1
  Zn  Zn3  1  0.49511500  0.81899500  0.18467900  1
  Zn  Zn4  1  0.81899500  0.18467900  0.49511500  1
  S  S5  1  0.04775500  0.36040800  0.70773300  1
  S  S6  1  0.36040800  0.70773300  0.04775500  1
  S  S7  1  0.70773300  0.04775500  0.36040800  1
  S  S8  1  0.21156200  0.21156200  0.21156200  1
  S  S9  1  0.54737700  0.54737700  0.54737700  1
  S  S10  1  0.87458000  0.87458000  0.87458000  1
