# generated using pymatgen
data_Cd2SiS4
_symmetry_space_group_name_H-M   'P 1'
_cell_length_a   6.50992295
_cell_length_b   6.50992295
_cell_length_c   6.50992295
_cell_angle_alpha   125.23100947
_cell_angle_beta   125.23100947
_cell_angle_gamma   81.15575220
_symmetry_Int_Tables_number   1
_chemical_formula_structural   Cd2SiS4
_chemical_formula_sum   'Cd2 Si1 S4'
_cell_volume   177.32396013
_cell_formula_units_Z   1
loop_
 _symmetry_equiv_pos_site_id
 _symmetry_equiv_pos_as_xyz
  1  'x, y, z'
loop_
 _atom_site_type_symbol
 _atom_site_label
 _atom_site_symmetry_multiplicity
 _atom_site_fract_x
 _atom_site_fract_y
 _atom_site_fract_z
 _atom_site_occupancy
  Cd  Cd0  1  0.75000000  0.25000000  0.50000000  1
  Cd  Cd1  1  0.25000000  0.75000000  0.50000000  1
  Si  Si2  1  0.50000000  0.50000000  0.00000000  1
  S  S3  1  0.82641951  0.82641951  0.44225102  1
  S  S4  1  0.38416849  0.38416849  0.55774898  1
  S  S5  1  0.61583151  0.17358050  -0.00000000  1
  S  S6  1  0.17358050  0.61583151  0.00000000  1
