# generated using pymatgen
data_CsRbMgF4
_symmetry_space_group_name_H-M   'P 1'
_cell_length_a   7.87666331
_cell_length_b   7.87666331
_cell_length_c   7.87666331
_cell_angle_alpha   149.18248254
_cell_angle_beta   149.18248254
_cell_angle_gamma   44.14277019
_symmetry_Int_Tables_number   1
_chemical_formula_structural   CsRbMgF4
_chemical_formula_sum   'Cs1 Rb1 Mg1 F4'
_cell_volume   127.88753673
_cell_formula_units_Z   1
loop_
 _symmetry_equiv_pos_site_id
 _symmetry_equiv_pos_as_xyz
  1  'x, y, z'
loop_
 _atom_site_type_symbol
 _atom_site_label
 _atom_site_symmetry_multiplicity
 _atom_site_fract_x
 _atom_site_fract_y
 _atom_site_fract_z
 _atom_site_occupancy
  Cs  Cs0  1  0.65352332  0.65352332  -0.00000000  1
  Rb  Rb1  1  0.35891732  0.35891732  -0.00000000  1
  Mg  Mg2  1  0.99738882  0.99738882  -0.00000000  1
  F  F3  1  0.49699590  0.99699589  0.50000000  1
  F  F4  1  0.99699589  0.49699590  0.50000000  1
  F  F5  1  0.86023406  0.86023406  -0.00000000  1
  F  F6  1  0.13594472  0.13594472  -0.00000000  1
