# generated using pymatgen
data_CsKMgF4
_symmetry_space_group_name_H-M   'P 1'
_cell_length_a   7.87614565
_cell_length_b   7.87614565
_cell_length_c   7.87614565
_cell_angle_alpha   149.57663055
_cell_angle_beta   149.57663055
_cell_angle_gamma   43.56322017
_symmetry_Int_Tables_number   1
_chemical_formula_structural   CsKMgF4
_chemical_formula_sum   'Cs1 K1 Mg1 F4'
_cell_volume   124.94343749
_cell_formula_units_Z   1
loop_
 _symmetry_equiv_pos_site_id
 _symmetry_equiv_pos_as_xyz
  1  'x, y, z'
loop_
 _atom_site_type_symbol
 _atom_site_label
 _atom_site_symmetry_multiplicity
 _atom_site_fract_x
 _atom_site_fract_y
 _atom_site_fract_z
 _atom_site_occupancy
  Cs  Cs0  1  0.65642594  0.65642594  -0.00000000  1
  K  K1  1  0.36866331  0.36866331  -0.00000000  1
  Mg  Mg2  1  0.99525416  0.99525416  -0.00000000  1
  F  F3  1  0.49391901  0.99391900  0.50000000  1
  F  F4  1  0.99391900  0.49391901  0.50000000  1
  F  F5  1  0.85824663  0.85824663  -0.00000000  1
  F  F6  1  0.13357192  0.13357192  -0.00000000  1
