# generated using pymatgen
data_RbSrGaF6
_symmetry_space_group_name_H-M   'P 1'
_cell_length_a   5.98931088
_cell_length_b   5.98931088
_cell_length_c   5.68026844
_cell_angle_alpha   89.98812373
_cell_angle_beta   89.98812373
_cell_angle_gamma   120.02212218
_symmetry_Int_Tables_number   1
_chemical_formula_structural   RbSrGaF6
_chemical_formula_sum   'Rb1 Sr1 Ga1 F6'
_cell_volume   176.42345019
_cell_formula_units_Z   1
loop_
 _symmetry_equiv_pos_site_id
 _symmetry_equiv_pos_as_xyz
  1  'x, y, z'
loop_
 _atom_site_type_symbol
 _atom_site_label
 _atom_site_symmetry_multiplicity
 _atom_site_fract_x
 _atom_site_fract_y
 _atom_site_fract_z
 _atom_site_occupancy
  Rb  Rb0  1  0.00006322  0.99993678  0.00000000  1
  Sr  Sr1  1  0.33339340  0.66660659  0.50000000  1
  Ga  Ga2  1  0.66666671  0.33333329  0.50000000  1
  F  F3  1  0.65361038  0.05995335  0.30733554  1
  F  F4  1  0.94004665  0.34638962  0.69266446  1
  F  F5  1  0.65346203  0.59347782  0.69268931  1
  F  F6  1  0.40621357  0.05975903  0.69249994  1
  F  F7  1  0.40652218  0.34653797  0.30731069  1
  F  F8  1  0.94024097  0.59378643  0.30750006  1
