# generated using pymatgen
data_KClO3
_symmetry_space_group_name_H-M   'P 1'
_cell_length_a   4.62887810
_cell_length_b   4.62887810
_cell_length_c   9.61098486
_cell_angle_alpha   90.00000000
_cell_angle_beta   90.00000000
_cell_angle_gamma   105.04643767
_symmetry_Int_Tables_number   1
_chemical_formula_structural   KClO3
_chemical_formula_sum   'K2 Cl2 O6'
_cell_volume   198.86973315
_cell_formula_units_Z   2
loop_
 _symmetry_equiv_pos_site_id
 _symmetry_equiv_pos_as_xyz
  1  'x, y, z'
loop_
 _atom_site_type_symbol
 _atom_site_label
 _atom_site_symmetry_multiplicity
 _atom_site_fract_x
 _atom_site_fract_y
 _atom_site_fract_z
 _atom_site_occupancy
  K  K0  1  0.10913453  0.10913453  0.00000000  1
  K  K1  1  0.10913453  0.10913453  0.50000000  1
  Cl  Cl2  1  0.69412588  0.53728693  0.75000000  1
  Cl  Cl3  1  0.53728693  0.69412588  0.25000000  1
  O  O4  1  0.67356327  0.34168852  0.87667463  1
  O  O5  1  0.67356327  0.34168852  0.62332537  1
  O  O6  1  0.00249392  0.74941262  0.75000000  1
  O  O7  1  0.34168852  0.67356327  0.37667463  1
  O  O8  1  0.34168852  0.67356327  0.12332537  1
  O  O9  1  0.74941262  0.00249392  0.25000000  1
