# generated using pymatgen
data_PH6NO4
_symmetry_space_group_name_H-M   'P 1'
_cell_length_a   6.62534354
_cell_length_b   6.62534354
_cell_length_c   6.62534354
_cell_angle_alpha   105.86177421
_cell_angle_beta   105.86177421
_cell_angle_gamma   116.95978254
_symmetry_Int_Tables_number   1
_chemical_formula_structural   PH6NO4
_chemical_formula_sum   'P2 H12 N2 O8'
_cell_volume   220.97015833
_cell_formula_units_Z   2
loop_
 _symmetry_equiv_pos_site_id
 _symmetry_equiv_pos_as_xyz
  1  'x, y, z'
loop_
 _atom_site_type_symbol
 _atom_site_label
 _atom_site_symmetry_multiplicity
 _atom_site_fract_x
 _atom_site_fract_y
 _atom_site_fract_z
 _atom_site_occupancy
  P  P0  1  0.00000000  0.00000000  0.00000000  1
  P  P1  1  0.25000000  0.75000000  0.50000000  1
  H  H2  1  0.48687078  0.34256688  0.01150435  1
  H  H3  1  0.76312922  0.27463357  0.35569610  1
  H  H4  1  0.33106253  0.47536643  0.98849565  1
  H  H5  1  0.91893747  0.40743312  0.64430390  1
  H  H6  1  0.52463357  0.51312922  0.85569610  1
  H  H7  1  0.72536643  0.08106253  0.48849565  1
  H  H8  1  0.65743312  0.66893747  0.14430390  1
  H  H9  1  0.59256688  0.23687078  0.51150435  1
  H  H10  1  0.24648018  0.87500000  0.87148018  1
  H  H11  1  0.00351982  0.37500000  0.12851982  1
  H  H12  1  0.62500000  0.75351982  0.62851982  1
  H  H13  1  0.12500000  0.99648018  0.37148018  1
  N  N14  1  0.50000000  0.50000000  0.00000000  1
  N  N15  1  0.75000000  0.25000000  0.50000000  1
  O  O16  1  0.25475842  0.03057256  0.02626152  1
  O  O17  1  0.99524158  0.52150310  0.27581414  1
  O  O18  1  0.00431104  0.22849690  0.97373848  1
  O  O19  1  0.24568896  0.71942744  0.72418586  1
  O  O20  1  0.77150310  0.74524158  0.77581414  1
  O  O21  1  0.47849690  0.75431104  0.47373848  1
  O  O22  1  0.96942744  0.99568896  0.22418586  1
  O  O23  1  0.28057256  0.00475842  0.52626152  1
