# generated using pymatgen
data_HS
_symmetry_space_group_name_H-M   'P 1'
_cell_length_a   4.66720041
_cell_length_b   8.20657311
_cell_length_c   8.61088857
_cell_angle_alpha   90.00000000
_cell_angle_beta   90.00000000
_cell_angle_gamma   90.00000000
_symmetry_Int_Tables_number   1
_chemical_formula_structural   HS
_chemical_formula_sum   'H8 S8'
_cell_volume   329.81185487
_cell_formula_units_Z   8
loop_
 _symmetry_equiv_pos_site_id
 _symmetry_equiv_pos_as_xyz
  1  'x, y, z'
loop_
 _atom_site_type_symbol
 _atom_site_label
 _atom_site_symmetry_multiplicity
 _atom_site_fract_x
 _atom_site_fract_y
 _atom_site_fract_z
 _atom_site_occupancy
  H  H0  1  0.19578070  0.35386852  0.58680101  1
  H  H1  1  0.80421930  0.85386852  0.91319899  1
  H  H2  1  0.30421930  0.64613148  0.08680101  1
  H  H3  1  0.69578070  0.14613148  0.41319899  1
  H  H4  1  0.86714770  0.51653691  0.90437401  1
  H  H5  1  0.13285230  0.01653691  0.59562599  1
  H  H6  1  0.63285230  0.48346309  0.40437401  1
  H  H7  1  0.36714770  0.98346309  0.09562599  1
  S  S8  1  0.15128768  0.50508038  0.52562089  1
  S  S9  1  0.84871232  0.00508038  0.97437911  1
  S  S10  1  0.34871232  0.49491962  0.02562089  1
  S  S11  1  0.65128768  0.99491962  0.47437911  1
  S  S12  1  0.89122712  0.44174936  0.34035657  1
  S  S13  1  0.10877288  0.94174936  0.15964343  1
  S  S14  1  0.60877288  0.55825064  0.84035657  1
  S  S15  1  0.39122712  0.05825064  0.65964343  1
