# generated using pymatgen
data_BaLi2SiS4
_symmetry_space_group_name_H-M   'P 1'
_cell_length_a   6.21190303
_cell_length_b   6.21190303
_cell_length_c   6.21190303
_cell_angle_alpha   115.56067374
_cell_angle_beta   115.55934202
_cell_angle_gamma   97.87935656
_symmetry_Int_Tables_number   1
_chemical_formula_structural   BaLi2SiS4
_chemical_formula_sum   'Ba1 Li2 Si1 S4'
_cell_volume   179.03432047
_cell_formula_units_Z   1
loop_
 _symmetry_equiv_pos_site_id
 _symmetry_equiv_pos_as_xyz
  1  'x, y, z'
loop_
 _atom_site_type_symbol
 _atom_site_label
 _atom_site_symmetry_multiplicity
 _atom_site_fract_x
 _atom_site_fract_y
 _atom_site_fract_z
 _atom_site_occupancy
  Ba  Ba0  1  0.00000000  0.00000000  0.00000000  1
  Li  Li1  1  0.25007863  0.75007863  0.50000000  1
  Li  Li2  1  0.74992137  0.24992137  0.50000000  1
  Si  Si3  1  0.50000000  0.50000000  -0.00000000  1
  S  S4  1  0.83939206  0.46708363  0.00000703  1
  S  S5  1  0.46707660  0.83938503  0.99999297  1
  S  S6  1  0.16060794  0.16061497  0.62769157  1
  S  S7  1  0.53292340  0.53291637  0.37230843  1
