# generated using pymatgen
data_KCdH6Ir
_symmetry_space_group_name_H-M   'P 1'
_cell_length_a   4.91052277
_cell_length_b   4.91052277
_cell_length_c   5.74854712
_cell_angle_alpha   89.99940903
_cell_angle_beta   89.99940903
_cell_angle_gamma   120.01032182
_symmetry_Int_Tables_number   1
_chemical_formula_structural   KCdH6Ir
_chemical_formula_sum   'K1 Cd1 H6 Ir1'
_cell_volume   120.03254242
_cell_formula_units_Z   1
loop_
 _symmetry_equiv_pos_site_id
 _symmetry_equiv_pos_as_xyz
  1  'x, y, z'
loop_
 _atom_site_type_symbol
 _atom_site_label
 _atom_site_symmetry_multiplicity
 _atom_site_fract_x
 _atom_site_fract_y
 _atom_site_fract_z
 _atom_site_occupancy
  K  K0  1  0.99992124  0.00007876  0.50000000  1
  Cd  Cd1  1  0.66658624  0.33341376  0.00000000  1
  H  H2  1  0.30468014  0.91577035  0.81719112  1
  H  H3  1  0.08422965  0.69531986  0.18280888  1
  H  H4  1  0.30485928  0.38908270  0.18280062  1
  H  H5  1  0.61112068  0.91589266  0.18268743  1
  H  H6  1  0.61091730  0.69514072  0.81719938  1
  H  H7  1  0.08410734  0.38887932  0.81731257  1
  Ir  Ir8  1  0.33327573  0.66672427  0.00000000  1
