# generated using pymatgen
data_CsCdH6Ir
_symmetry_space_group_name_H-M   'P 1'
_cell_length_a   4.93045141
_cell_length_b   4.93045141
_cell_length_c   6.47748670
_cell_angle_alpha   90.00000000
_cell_angle_beta   90.00000000
_cell_angle_gamma   120.00000000
_symmetry_Int_Tables_number   1
_chemical_formula_structural   CsCdH6Ir
_chemical_formula_sum   'Cs1 Cd1 H6 Ir1'
_cell_volume   136.36738996
_cell_formula_units_Z   1
loop_
 _symmetry_equiv_pos_site_id
 _symmetry_equiv_pos_as_xyz
  1  'x, y, z'
loop_
 _atom_site_type_symbol
 _atom_site_label
 _atom_site_symmetry_multiplicity
 _atom_site_fract_x
 _atom_site_fract_y
 _atom_site_fract_z
 _atom_site_occupancy
  Cs  Cs0  1  0.00000000  0.00000000  0.00000000  1
  Cd  Cd1  1  0.33333333  0.66666667  0.50000000  1
  H  H2  1  0.38674776  0.30100779  0.33910229  1
  H  H3  1  0.38674776  0.08573997  0.66089771  1
  H  H4  1  0.91426003  0.30100779  0.66089771  1
  H  H5  1  0.69899221  0.61325224  0.66089771  1
  H  H6  1  0.91426003  0.61325224  0.33910229  1
  H  H7  1  0.69899221  0.08573997  0.33910229  1
  Ir  Ir8  1  0.66666667  0.33333333  0.50000000  1
