# generated using pymatgen
data_K2ZnGeS4
_symmetry_space_group_name_H-M   'P 1'
_cell_length_a   6.52228792
_cell_length_b   6.52320740
_cell_length_c   6.52329258
_cell_angle_alpha   98.97532266
_cell_angle_beta   114.95753461
_cell_angle_gamma   114.96117750
_symmetry_Int_Tables_number   1
_chemical_formula_structural   K2ZnGeS4
_chemical_formula_sum   'K2 Zn1 Ge1 S4'
_cell_volume   208.42909273
_cell_formula_units_Z   1
loop_
 _symmetry_equiv_pos_site_id
 _symmetry_equiv_pos_as_xyz
  1  'x, y, z'
loop_
 _atom_site_type_symbol
 _atom_site_label
 _atom_site_symmetry_multiplicity
 _atom_site_fract_x
 _atom_site_fract_y
 _atom_site_fract_z
 _atom_site_occupancy
  K  K0  1  0.50002706  0.98580840  0.48578676  1
  K  K1  1  0.00005064  0.23586425  0.23586391  1
  Zn  Zn2  1  0.50007187  0.48599827  0.98602344  1
  Ge  Ge3  1  0.99993841  0.73581461  0.73581274  1
  S  S4  1  0.38192742  0.10321793  0.02098113  1
  S  S5  1  0.91783502  0.75053093  0.36852335  1
  S  S6  1  0.08216940  0.45072148  0.83276230  1
  S  S7  1  0.61797918  0.63909612  0.72129537  1
