# generated using pymatgen
data_N2
_symmetry_space_group_name_H-M   'P 1'
_cell_length_a   5.65000000
_cell_length_b   5.65000000
_cell_length_c   5.65000000
_cell_angle_alpha   90.00000000
_cell_angle_beta   90.00000000
_cell_angle_gamma   90.00000000
_symmetry_Int_Tables_number   1
_chemical_formula_structural   N2
_chemical_formula_sum   N8
_cell_volume   180.36212500
_cell_formula_units_Z   4
loop_
 _symmetry_equiv_pos_site_id
 _symmetry_equiv_pos_as_xyz
  1  'x, y, z'
loop_
 _atom_site_type_symbol
 _atom_site_label
 _atom_site_symmetry_multiplicity
 _atom_site_fract_x
 _atom_site_fract_y
 _atom_site_fract_z
 _atom_site_occupancy
  N  N0  1  0.06990000  0.06990000  0.06990000  1.0
  N  N1  1  0.43010000  0.93010000  0.56990000  1.0
  N  N2  1  0.56990000  0.43010000  0.93010000  1.0
  N  N3  1  0.93010000  0.56990000  0.43010000  1.0
  N  N4  1  0.96220000  0.96220000  0.96220000  1.0
  N  N5  1  0.53780000  0.03780000  0.46220000  1.0
  N  N6  1  0.46220000  0.53780000  0.03780000  1.0
  N  N7  1  0.03780000  0.46220000  0.53780000  1.0
