# generated using pymatgen
data_Li2CaGeS4
_symmetry_space_group_name_H-M   'P 1'
_cell_length_a   5.97787299
_cell_length_b   5.97787299
_cell_length_c   5.97787299
_cell_angle_alpha   113.82894749
_cell_angle_beta   113.82894749
_cell_angle_gamma   101.06864820
_symmetry_Int_Tables_number   1
_chemical_formula_structural   Li2CaGeS4
_chemical_formula_sum   'Li2 Ca1 Ge1 S4'
_cell_volume   161.84733473
_cell_formula_units_Z   1
loop_
 _symmetry_equiv_pos_site_id
 _symmetry_equiv_pos_as_xyz
  1  'x, y, z'
loop_
 _atom_site_type_symbol
 _atom_site_label
 _atom_site_symmetry_multiplicity
 _atom_site_fract_x
 _atom_site_fract_y
 _atom_site_fract_z
 _atom_site_occupancy
  Li  Li0  1  0.75000000  0.25000000  0.50000000  1
  Li  Li1  1  0.25000000  0.75000000  0.50000000  1
  Ca  Ca2  1  0.00000000  0.00000000  0.00000000  1
  Ge  Ge3  1  0.50000000  0.50000000  -0.00000000  1
  S  S4  1  0.13405600  0.53199062  0.00000000  1
  S  S5  1  0.46800938  0.46800938  0.60206538  1
  S  S6  1  0.86594400  0.86594400  0.39793462  1
  S  S7  1  0.53199062  0.13405600  1.00000000  1
