# generated using pymatgen
data_KInSnS4
_symmetry_space_group_name_H-M   'P 1'
_cell_length_a   6.61222609
_cell_length_b   6.61222609
_cell_length_c   6.61222609
_cell_angle_alpha   116.28589432
_cell_angle_beta   116.28589432
_cell_angle_gamma   96.56319747
_symmetry_Int_Tables_number   1
_chemical_formula_structural   KInSnS4
_chemical_formula_sum   'K1 In1 Sn1 S4'
_cell_volume   214.37463759
_cell_formula_units_Z   1
loop_
 _symmetry_equiv_pos_site_id
 _symmetry_equiv_pos_as_xyz
  1  'x, y, z'
loop_
 _atom_site_type_symbol
 _atom_site_label
 _atom_site_symmetry_multiplicity
 _atom_site_fract_x
 _atom_site_fract_y
 _atom_site_fract_z
 _atom_site_occupancy
  K  K0  1  0.00000000  0.00000000  0.00000000  1
  In  In1  1  0.75000000  0.25000000  0.50000000  1
  Sn  Sn2  1  0.50000000  0.50000000  0.00000000  1
  S  S3  1  0.83999146  0.87241184  0.40910152  1
  S  S4  1  0.56911006  0.16000854  0.03242038  1
  S  S5  1  0.46331032  0.43088994  0.59089848  1
  S  S6  1  0.12758816  0.53668968  0.96757962  1
