# generated using pymatgen
data_Li2BeSiTe4
_symmetry_space_group_name_H-M   'P 1'
_cell_length_a   6.33671500
_cell_length_b   6.33765403
_cell_length_c   7.13880823
_cell_angle_alpha   116.34735895
_cell_angle_beta   116.34264060
_cell_angle_gamma   90.00147947
_symmetry_Int_Tables_number   1
_chemical_formula_structural   Li2BeSiTe4
_chemical_formula_sum   'Li2 Be1 Si1 Te4'
_cell_volume   223.20127546
_cell_formula_units_Z   1
loop_
 _symmetry_equiv_pos_site_id
 _symmetry_equiv_pos_as_xyz
  1  'x, y, z'
loop_
 _atom_site_type_symbol
 _atom_site_label
 _atom_site_symmetry_multiplicity
 _atom_site_fract_x
 _atom_site_fract_y
 _atom_site_fract_z
 _atom_site_occupancy
  Li  Li0  1  0.98571514  0.48566692  0.97144849  1
  Li  Li1  1  0.23590024  0.23574996  0.47158713  1
  Be  Be2  1  0.48588998  0.98611562  0.97216992  1
  Si  Si3  1  0.73597442  0.73593669  0.47182923  1
  Te  Te4  1  0.11982131  0.65335738  0.73368986  1
  Te  Te5  1  0.81843203  0.85775831  0.20977415  1
  Te  Te6  1  0.39138181  0.35220186  0.20986074  1
  Te  Te7  1  0.61393706  0.08026627  0.73374247  1
