# generated using pymatgen
data_AsOsS
_symmetry_space_group_name_H-M   'P 1'
_cell_length_a   5.96009970
_cell_length_b   5.98973639
_cell_length_c   6.07657149
_cell_angle_alpha   67.91396325
_cell_angle_beta   90.00000000
_cell_angle_gamma   90.00000000
_symmetry_Int_Tables_number   1
_chemical_formula_structural   AsOsS
_chemical_formula_sum   'As4 Os4 S4'
_cell_volume   201.01184586
_cell_formula_units_Z   4
loop_
 _symmetry_equiv_pos_site_id
 _symmetry_equiv_pos_as_xyz
  1  'x, y, z'
loop_
 _atom_site_type_symbol
 _atom_site_label
 _atom_site_symmetry_multiplicity
 _atom_site_fract_x
 _atom_site_fract_y
 _atom_site_fract_z
 _atom_site_occupancy
  As  As0  1  0.13130720  0.65792743  0.42966694  1
  As  As1  1  0.12466514  0.15080229  0.87538402  1
  As  As2  1  0.62466514  0.84919771  0.12461598  1
  As  As3  1  0.63130720  0.34207257  0.57033306  1
  Os  Os4  1  0.99695201  0.26646138  0.44961866  1
  Os  Os5  1  0.49695201  0.73353862  0.55038134  1
  Os  Os6  1  0.49733615  0.28171992  0.96489877  1
  Os  Os7  1  0.99733615  0.71828008  0.03510123  1
  S  S8  1  0.86909775  0.33994183  0.06399893  1
  S  S9  1  0.87684375  0.84643583  0.62314600  1
  S  S10  1  0.37684375  0.15356417  0.37685400  1
  S  S11  1  0.36909775  0.66005817  0.93600107  1
