# generated using pymatgen
data_Al2CdTe4
_symmetry_space_group_name_H-M   'P 1'
_cell_length_a   6.03704288
_cell_length_b   6.03704288
_cell_length_c   6.44187266
_cell_angle_alpha   90.00000000
_cell_angle_beta   90.00000000
_cell_angle_gamma   90.00000000
_symmetry_Int_Tables_number   1
_chemical_formula_structural   Al2CdTe4
_chemical_formula_sum   'Al2 Cd1 Te4'
_cell_volume   234.77976133
_cell_formula_units_Z   1
loop_
 _symmetry_equiv_pos_site_id
 _symmetry_equiv_pos_as_xyz
  1  'x, y, z'
loop_
 _atom_site_type_symbol
 _atom_site_label
 _atom_site_symmetry_multiplicity
 _atom_site_fract_x
 _atom_site_fract_y
 _atom_site_fract_z
 _atom_site_occupancy
  Al  Al0  1  0.50000000  0.00000000  0.50000000  1
  Al  Al1  1  0.00000000  0.50000000  0.50000000  1
  Cd  Cd2  1  0.00000000  0.00000000  0.00000000  1
  Te  Te3  1  0.72556944  0.27443056  0.74809319  1
  Te  Te4  1  0.27443056  0.27443056  0.25190681  1
  Te  Te5  1  0.27443056  0.72556944  0.74809319  1
  Te  Te6  1  0.72556944  0.72556944  0.25190681  1
