# generated using pymatgen
data_Zn2TeSe
_symmetry_space_group_name_H-M   'P 1'
_cell_length_a   7.29193265
_cell_length_b   7.29193265
_cell_length_c   7.29193265
_cell_angle_alpha   131.76050579
_cell_angle_beta   131.76050579
_cell_angle_gamma   70.60754598
_symmetry_Int_Tables_number   1
_chemical_formula_structural   Zn2TeSe
_chemical_formula_sum   'Zn4 Te2 Se2'
_cell_volume   211.36036272
_cell_formula_units_Z   2
loop_
 _symmetry_equiv_pos_site_id
 _symmetry_equiv_pos_as_xyz
  1  'x, y, z'
loop_
 _atom_site_type_symbol
 _atom_site_label
 _atom_site_symmetry_multiplicity
 _atom_site_fract_x
 _atom_site_fract_y
 _atom_site_fract_z
 _atom_site_occupancy
  Zn  Zn0  1  0.14800900  0.62500000  0.02300900  1
  Zn  Zn1  1  0.60199100  0.12500000  0.97699100  1
  Zn  Zn2  1  0.37500000  0.39800900  0.52300900  1
  Zn  Zn3  1  0.87500000  0.85199100  0.47699100  1
  Te  Te4  1  0.75000000  0.25000000  0.50000000  1
  Te  Te5  1  0.00000000  0.00000000  0.00000000  1
  Se  Se6  1  0.25000000  0.75000000  0.50000000  1
  Se  Se7  1  0.50000000  0.50000000  -0.00000000  1
