# generated using pymatgen
data_Al2InAs3
_symmetry_space_group_name_H-M   'P 1'
_cell_length_a   7.19592412
_cell_length_b   7.19592412
_cell_length_c   7.18494529
_cell_angle_alpha   80.46453350
_cell_angle_beta   80.46453350
_cell_angle_gamma   120.06184723
_symmetry_Int_Tables_number   1
_chemical_formula_structural   Al2InAs3
_chemical_formula_sum   'Al4 In2 As6'
_cell_volume   303.77855954
_cell_formula_units_Z   2
loop_
 _symmetry_equiv_pos_site_id
 _symmetry_equiv_pos_as_xyz
  1  'x, y, z'
loop_
 _atom_site_type_symbol
 _atom_site_label
 _atom_site_symmetry_multiplicity
 _atom_site_fract_x
 _atom_site_fract_y
 _atom_site_fract_z
 _atom_site_occupancy
  Al  Al0  1  0.40523200  0.57074101  0.00705350  1
  Al  Al1  1  0.24103026  0.73411440  0.50785886  1
  Al  Al2  1  0.57074101  0.40523200  0.50705350  1
  Al  Al3  1  0.73411440  0.24103026  0.00785886  1
  In  In4  1  0.90198653  0.07509577  0.50769459  1
  In  In5  1  0.07509577  0.90198653  0.00769459  1
  As  As6  1  0.94416058  0.75904216  0.39793582  1
  As  As7  1  0.75904216  0.94416058  0.89793582  1
  As  As8  1  0.11612494  0.59459538  0.87634261  1
  As  As9  1  0.59459538  0.11612494  0.37634261  1
  As  As10  1  0.46365643  0.29918953  0.87439163  1
  As  As11  1  0.29918953  0.46365643  0.37439163  1
