# generated using pymatgen
data_RbTlI2
_symmetry_space_group_name_H-M   'P 1'
_cell_length_a   6.73796918
_cell_length_b   6.73796918
_cell_length_c   8.61384939
_cell_angle_alpha   50.28110131
_cell_angle_beta   50.28110131
_cell_angle_gamma   42.65335776
_symmetry_Int_Tables_number   1
_chemical_formula_structural   RbTlI2
_chemical_formula_sum   'Rb1 Tl1 I2'
_cell_volume   192.79641739
_cell_formula_units_Z   1
loop_
 _symmetry_equiv_pos_site_id
 _symmetry_equiv_pos_as_xyz
  1  'x, y, z'
loop_
 _atom_site_type_symbol
 _atom_site_label
 _atom_site_symmetry_multiplicity
 _atom_site_fract_x
 _atom_site_fract_y
 _atom_site_fract_z
 _atom_site_occupancy
  Rb  Rb0  1  0.24619163  0.24619163  0.57246130  1
  Tl  Tl1  1  0.74631216  0.74631216  0.08155586  1
  I  I2  1  0.48714184  0.48714184  0.67129713  1
  I  I3  1  0.00490739  0.00490739  0.15315817  1
