# generated using pymatgen
data_OsO4
_symmetry_space_group_name_H-M   'P 1'
_cell_length_a   4.51999968
_cell_length_b   4.88431169
_cell_length_c   4.75000012
_cell_angle_alpha   114.50831333
_cell_angle_beta   90.00000000
_cell_angle_gamma   117.56185260
_symmetry_Int_Tables_number   1
_chemical_formula_structural   OsO4
_chemical_formula_sum   'Os1 O4'
_cell_volume   82.15936252
_cell_formula_units_Z   1
loop_
 _symmetry_equiv_pos_site_id
 _symmetry_equiv_pos_as_xyz
  1  'x, y, z'
loop_
 _atom_site_type_symbol
 _atom_site_label
 _atom_site_symmetry_multiplicity
 _atom_site_fract_x
 _atom_site_fract_y
 _atom_site_fract_z
 _atom_site_occupancy
  Os  Os4  1  0.00000000  0.00000000  0.00000000  1.0
  O  O0  1  0.92000000  0.26000000  0.93000000  1.0
  O  O1  1  0.32000000  0.22000000  0.31000000  1.0
  O  O2  1  0.66000000  0.74000000  0.07000000  1.0
  O  O3  1  0.10000000  0.78000000  0.69000000  1.0
