# generated using pymatgen
data_AlSCl
_symmetry_space_group_name_H-M   'P 1'
_cell_length_a   6.04365463
_cell_length_b   6.51970872
_cell_length_c   8.58774991
_cell_angle_alpha   90.00000000
_cell_angle_beta   90.00000000
_cell_angle_gamma   90.00000000
_symmetry_Int_Tables_number   1
_chemical_formula_structural   AlSCl
_chemical_formula_sum   'Al4 S4 Cl4'
_cell_volume   338.38197433
_cell_formula_units_Z   4
loop_
 _symmetry_equiv_pos_site_id
 _symmetry_equiv_pos_as_xyz
  1  'x, y, z'
loop_
 _atom_site_type_symbol
 _atom_site_label
 _atom_site_symmetry_multiplicity
 _atom_site_fract_x
 _atom_site_fract_y
 _atom_site_fract_z
 _atom_site_occupancy
  Al  Al0  1  0.00300223  0.08054778  0.11753117  1
  Al  Al1  1  0.50300223  0.91945222  0.88246883  1
  Al  Al2  1  0.00300223  0.58054778  0.88246883  1
  Al  Al3  1  0.50300223  0.41945222  0.11753117  1
  S  S4  1  0.12147773  0.41565058  0.10392480  1
  S  S5  1  0.62147773  0.58434942  0.89607520  1
  S  S6  1  0.12147773  0.91565058  0.89607520  1
  S  S7  1  0.62147773  0.08434942  0.10392480  1
  Cl  Cl8  1  0.10452003  0.95601853  0.33080420  1
  Cl  Cl9  1  0.60452003  0.04398147  0.66919580  1
  Cl  Cl10  1  0.10452003  0.45601853  0.66919580  1
  Cl  Cl11  1  0.60452003  0.54398147  0.33080420  1
