# generated using pymatgen
data_SiClF3
_symmetry_space_group_name_H-M   'P 1'
_cell_length_a   5.01829975
_cell_length_b   6.13216371
_cell_length_c   7.11720629
_cell_angle_alpha   90.96883437
_cell_angle_beta   90.03641797
_cell_angle_gamma   90.07066751
_symmetry_Int_Tables_number   1
_chemical_formula_structural   SiClF3
_chemical_formula_sum   'Si2 Cl2 F6'
_cell_volume   218.98651800
_cell_formula_units_Z   2
loop_
 _symmetry_equiv_pos_site_id
 _symmetry_equiv_pos_as_xyz
  1  'x, y, z'
loop_
 _atom_site_type_symbol
 _atom_site_label
 _atom_site_symmetry_multiplicity
 _atom_site_fract_x
 _atom_site_fract_y
 _atom_site_fract_z
 _atom_site_occupancy
  Si  Si0  1  0.72687999  0.08952505  0.67711369  1
  Si  Si1  1  0.22687765  0.55771545  0.22444559  1
  Cl  Cl2  1  0.61749027  0.39764174  0.73640743  1
  Cl  Cl3  1  0.11590737  0.24984807  0.16476523  1
  F  F4  1  0.54294916  0.57465625  0.23039234  1
  F  F5  1  0.62033095  0.92797543  0.83198025  1
  F  F6  1  0.11559957  0.63350603  0.42390840  1
  F  F7  1  0.04284826  0.07214356  0.67086459  1
  F  F8  1  0.12036479  0.71969033  0.06996495  1
  F  F9  1  0.61450599  0.01341309  0.47786553  1
