# generated using pymatgen
data_Li4SiS4
_symmetry_space_group_name_H-M   'P 1'
_cell_length_a   6.68406288
_cell_length_b   6.68406288
_cell_length_c   6.68406288
_cell_angle_alpha   128.00766976
_cell_angle_beta   128.00766976
_cell_angle_gamma   76.61260373
_symmetry_Int_Tables_number   1
_chemical_formula_structural   Li4SiS4
_chemical_formula_sum   'Li4 Si1 S4'
_cell_volume   180.07543696
_cell_formula_units_Z   1
loop_
 _symmetry_equiv_pos_site_id
 _symmetry_equiv_pos_as_xyz
  1  'x, y, z'
loop_
 _atom_site_type_symbol
 _atom_site_label
 _atom_site_symmetry_multiplicity
 _atom_site_fract_x
 _atom_site_fract_y
 _atom_site_fract_z
 _atom_site_occupancy
  Li  Li0  1  0.50000000  0.00000000  0.50000000  1
  Li  Li1  1  0.00000000  0.50000000  0.50000000  1
  Li  Li2  1  0.28822412  0.28822412  -0.00000000  1
  Li  Li3  1  0.71177588  0.71177588  -0.00000000  1
  Si  Si4  1  0.00000000  0.00000000  0.00000000  1
  S  S5  1  0.67103440  0.08772707  -0.00000000  1
  S  S6  1  0.32896560  0.32896560  0.41669267  1
  S  S7  1  0.08772707  0.67103440  0.00000000  1
  S  S8  1  0.91227293  0.91227293  0.58330733  1
