# generated using pymatgen
data_Tl4TeBr2
_symmetry_space_group_name_H-M   'P 1'
_cell_length_a   8.69776342
_cell_length_b   8.69776342
_cell_length_c   8.69776342
_cell_angle_alpha   110.26958464
_cell_angle_beta   110.26958464
_cell_angle_gamma   107.88602755
_symmetry_Int_Tables_number   1
_chemical_formula_structural   Tl4TeBr2
_chemical_formula_sum   'Tl8 Te2 Br4'
_cell_volume   506.23519159
_cell_formula_units_Z   2
loop_
 _symmetry_equiv_pos_site_id
 _symmetry_equiv_pos_as_xyz
  1  'x, y, z'
loop_
 _atom_site_type_symbol
 _atom_site_label
 _atom_site_symmetry_multiplicity
 _atom_site_fract_x
 _atom_site_fract_y
 _atom_site_fract_z
 _atom_site_occupancy
  Tl  Tl0  1  0.11781848  0.37172415  0.39294296  1
  Tl  Tl1  1  0.27512448  0.88218152  0.25390567  1
  Tl  Tl2  1  0.47487552  0.22878119  0.10705704  1
  Tl  Tl3  1  0.63218152  0.52512448  0.75390567  1
  Tl  Tl4  1  0.77121881  0.87827585  0.24609433  1
  Tl  Tl5  1  0.62827585  0.02121881  0.74609433  1
  Tl  Tl6  1  0.97878119  0.72487552  0.60705704  1
  Tl  Tl7  1  0.12172415  0.36781848  0.89294296  1
  Te  Te8  1  0.75000000  0.25000000  0.50000000  1
  Te  Te9  1  0.00000000  0.00000000  0.00000000  1
  Br  Br10  1  0.23255911  0.12500000  0.60755911  1
  Br  Br11  1  0.37500000  0.76744089  0.89244089  1
  Br  Br12  1  0.51744089  0.62500000  0.39244089  1
  Br  Br13  1  0.87500000  0.48255911  0.10755911  1
