# generated using pymatgen
data_TeAsAu
_symmetry_space_group_name_H-M   'P 1'
_cell_length_a   6.05862993
_cell_length_b   6.28291874
_cell_length_c   8.88889110
_cell_angle_alpha   90.00000000
_cell_angle_beta   90.00000000
_cell_angle_gamma   90.00000000
_symmetry_Int_Tables_number   1
_chemical_formula_structural   TeAsAu
_chemical_formula_sum   'Te4 As4 Au4'
_cell_volume   338.36345773
_cell_formula_units_Z   4
loop_
 _symmetry_equiv_pos_site_id
 _symmetry_equiv_pos_as_xyz
  1  'x, y, z'
loop_
 _atom_site_type_symbol
 _atom_site_label
 _atom_site_symmetry_multiplicity
 _atom_site_fract_x
 _atom_site_fract_y
 _atom_site_fract_z
 _atom_site_occupancy
  Te  Te0  1  0.39381090  0.86366609  0.90083904  1
  Te  Te1  1  0.89381090  0.86366609  0.59916096  1
  Te  Te2  1  0.89381090  0.13633391  0.09916096  1
  Te  Te3  1  0.39381090  0.13633391  0.40083904  1
  As  As4  1  0.60901845  0.62758174  0.09759824  1
  As  As5  1  0.10901845  0.62758174  0.40240176  1
  As  As6  1  0.60901845  0.37241826  0.59759824  1
  As  As7  1  0.10901845  0.37241826  0.90240176  1
  Au  Au8  1  0.49016965  0.73305587  0.49845088  1
  Au  Au9  1  0.49016965  0.26694413  0.99845088  1
  Au  Au10  1  0.99016965  0.73305587  0.00154912  1
  Au  Au11  1  0.99016965  0.26694413  0.50154912  1
