# generated using pymatgen
data_NaLiTeF6
_symmetry_space_group_name_H-M   'P 1'
_cell_length_a   5.05275556
_cell_length_b   5.05275556
_cell_length_c   10.01366560
_cell_angle_alpha   90.00000000
_cell_angle_beta   90.00000000
_cell_angle_gamma   90.00000000
_symmetry_Int_Tables_number   1
_chemical_formula_structural   NaLiTeF6
_chemical_formula_sum   'Na2 Li2 Te2 F12'
_cell_volume   255.65227489
_cell_formula_units_Z   2
loop_
 _symmetry_equiv_pos_site_id
 _symmetry_equiv_pos_as_xyz
  1  'x, y, z'
loop_
 _atom_site_type_symbol
 _atom_site_label
 _atom_site_symmetry_multiplicity
 _atom_site_fract_x
 _atom_site_fract_y
 _atom_site_fract_z
 _atom_site_occupancy
  Na  Na0  1  0.50000000  0.50000000  0.50319602  1
  Na  Na1  1  0.00000000  0.00000000  0.00319602  1
  Li  Li2  1  0.50000000  0.50000000  0.83012031  1
  Li  Li3  1  0.00000000  0.00000000  0.33012031  1
  Te  Te4  1  0.50000000  0.50000000  0.16712986  1
  Te  Te5  1  0.00000000  0.00000000  0.66712986  1
  F  F6  1  0.18317108  0.81682892  0.50274343  1
  F  F7  1  0.81682892  0.18317108  0.50274343  1
  F  F8  1  0.31682892  0.31682892  0.00274343  1
  F  F9  1  0.68317108  0.68317108  0.00274343  1
  F  F10  1  0.20617335  0.79382665  0.17894601  1
  F  F11  1  0.79382665  0.20617335  0.17894601  1
  F  F12  1  0.29382665  0.29382665  0.67894601  1
  F  F13  1  0.70617335  0.70617335  0.67894601  1
  F  F14  1  0.79666331  0.20333669  0.81808797  1
  F  F15  1  0.20333669  0.79666331  0.81808797  1
  F  F16  1  0.70333669  0.70333669  0.31808797  1
  F  F17  1  0.29666331  0.29666331  0.31808797  1
