# generated using pymatgen
data_KBH4
_symmetry_space_group_name_H-M   'P 1'
_cell_length_a   4.89760206
_cell_length_b   4.89760206
_cell_length_c   7.62527014
_cell_angle_alpha   90.00000000
_cell_angle_beta   90.00000000
_cell_angle_gamma   120.00000000
_symmetry_Int_Tables_number   1
_chemical_formula_structural   KBH4
_chemical_formula_sum   'K2 B2 H8'
_cell_volume   158.39915310
_cell_formula_units_Z   2
loop_
 _symmetry_equiv_pos_site_id
 _symmetry_equiv_pos_as_xyz
  1  'x, y, z'
loop_
 _atom_site_type_symbol
 _atom_site_label
 _atom_site_symmetry_multiplicity
 _atom_site_fract_x
 _atom_site_fract_y
 _atom_site_fract_z
 _atom_site_occupancy
  K  K0  1  0.00000000  0.00000000  0.84650121  1
  K  K1  1  0.66666667  0.33333333  0.31136404  1
  B  B2  1  0.66666667  0.33333333  0.69083437  1
  B  B3  1  0.33333333  0.66666667  0.11938702  1
  H  H4  1  0.66666667  0.33333333  0.85258312  1
  H  H5  1  0.33333333  0.66666667  0.95893856  1
  H  H6  1  0.19634452  0.80365548  0.17354209  1
  H  H7  1  0.52943769  0.47056231  0.63859483  1
  H  H8  1  0.19634452  0.39268905  0.17354209  1
  H  H9  1  0.60731095  0.80365548  0.17354209  1
  H  H10  1  0.94112462  0.47056231  0.63859483  1
  H  H11  1  0.52943769  0.05887538  0.63859483  1
