# generated using pymatgen
data_PF5
_symmetry_space_group_name_H-M   'P 1'
_cell_length_a   4.91728330
_cell_length_b   4.91728330
_cell_length_c   4.91728330
_cell_angle_alpha   102.33062400
_cell_angle_beta   102.33062400
_cell_angle_gamma   124.95233995
_symmetry_Int_Tables_number   1
_chemical_formula_structural   PF5
_chemical_formula_sum   'P1 F5'
_cell_volume   86.42269152
_cell_formula_units_Z   1
loop_
 _symmetry_equiv_pos_site_id
 _symmetry_equiv_pos_as_xyz
  1  'x, y, z'
loop_
 _atom_site_type_symbol
 _atom_site_label
 _atom_site_symmetry_multiplicity
 _atom_site_fract_x
 _atom_site_fract_y
 _atom_site_fract_z
 _atom_site_occupancy
  P  P0  1  0.07523044  0.07523044  0.00000000  1
  F  F1  1  0.75543688  0.95013365  0.70121624  1
  F  F2  1  0.41605897  0.41605897  0.00000000  1
  F  F3  1  0.24891741  0.05422064  0.29878376  1
  F  F4  1  0.95013365  0.24891741  0.19469677  1
  F  F5  1  0.05422064  0.75543688  0.80530323  1
