# generated using pymatgen
data_ZrO2
_symmetry_space_group_name_H-M   'P 1'
_cell_length_a   5.26000000
_cell_length_b   5.06800000
_cell_length_c   5.07700000
_cell_angle_alpha   90.00000000
_cell_angle_beta   90.00000000
_cell_angle_gamma   90.00000000
_symmetry_Int_Tables_number   1
_chemical_formula_structural   ZrO2
_chemical_formula_sum   'Zr4 O8'
_cell_volume   135.34104136
_cell_formula_units_Z   4
loop_
 _symmetry_equiv_pos_site_id
 _symmetry_equiv_pos_as_xyz
  1  'x, y, z'
loop_
 _atom_site_type_symbol
 _atom_site_label
 _atom_site_symmetry_multiplicity
 _atom_site_fract_x
 _atom_site_fract_y
 _atom_site_fract_z
 _atom_site_occupancy
  Zr  Zr0  1  0.03000000  0.73300000  0.75000000  1.0
  Zr  Zr1  1  0.53000000  0.26700000  0.75000000  1.0
  Zr  Zr2  1  0.97000000  0.26700000  0.25000000  1.0
  Zr  Zr3  1  0.47000000  0.73300000  0.25000000  1.0
  O  O4  1  0.22900000  0.46300000  0.50000000  1.0
  O  O5  1  0.36100000  0.93200000  0.60600000  1.0
  O  O6  1  0.86100000  0.06800000  0.60600000  1.0
  O  O7  1  0.72900000  0.53700000  0.50000000  1.0
  O  O8  1  0.13900000  0.93200000  0.10600000  1.0
  O  O9  1  0.77100000  0.53700000  0.00000000  1.0
  O  O10  1  0.63900000  0.06800000  0.10600000  1.0
  O  O11  1  0.27100000  0.46300000  0.00000000  1.0
