# generated using pymatgen
data_WOF4
_symmetry_space_group_name_H-M   'P 1'
_cell_length_a   3.98980169
_cell_length_b   5.42092473
_cell_length_c   5.42092473
_cell_angle_alpha   82.21685725
_cell_angle_beta   68.40766892
_cell_angle_gamma   68.40766892
_symmetry_Int_Tables_number   1
_chemical_formula_structural   WOF4
_chemical_formula_sum   'W1 O1 F4'
_cell_volume   101.36807578
_cell_formula_units_Z   1
loop_
 _symmetry_equiv_pos_site_id
 _symmetry_equiv_pos_as_xyz
  1  'x, y, z'
loop_
 _atom_site_type_symbol
 _atom_site_label
 _atom_site_symmetry_multiplicity
 _atom_site_fract_x
 _atom_site_fract_y
 _atom_site_fract_z
 _atom_site_occupancy
  W  W5  1  0.00001905  0.00000000  0.00000000  1.0
  O  O4  1  0.43826562  0.00000000  0.00000000  1.0
  F  F0  1  0.85788775  0.31763065  0.81699851  1.0
  F  F1  1  0.67488626  0.18300149  0.31763065  1.0
  F  F2  1  0.17551840  0.81699851  0.68236935  1.0
  F  F3  1  0.99251691  0.68236935  0.18300149  1.0
