# generated using pymatgen
data_Ca2B5H3O11
_symmetry_space_group_name_H-M   'P 1'
_cell_length_a   6.37697639
_cell_length_b   6.37697639
_cell_length_c   12.53069483
_cell_angle_alpha   69.11829130
_cell_angle_beta   69.11829130
_cell_angle_gamma   62.39201693
_symmetry_Int_Tables_number   1
_chemical_formula_structural   Ca2B5H3O11
_chemical_formula_sum   'Ca4 B10 H6 O22'
_cell_volume   410.48093976
_cell_formula_units_Z   2
loop_
 _symmetry_equiv_pos_site_id
 _symmetry_equiv_pos_as_xyz
  1  'x, y, z'
loop_
 _atom_site_type_symbol
 _atom_site_label
 _atom_site_symmetry_multiplicity
 _atom_site_fract_x
 _atom_site_fract_y
 _atom_site_fract_z
 _atom_site_occupancy
  Ca  Ca0  1  0.15935100  0.35597000  0.38623400  1
  Ca  Ca1  1  0.35597000  0.15935100  0.88623400  1
  Ca  Ca2  1  0.63528600  0.45417200  0.08881400  1
  Ca  Ca3  1  0.45417200  0.63528600  0.58881400  1
  B  B4  1  0.03357500  0.55154800  0.10008800  1
  B  B5  1  0.55154800  0.03357500  0.60008800  1
  B  B6  1  0.77463600  0.98875800  0.06299400  1
  B  B7  1  0.98875800  0.77463600  0.56299400  1
  B  B8  1  0.29832000  0.10438200  0.13191300  1
  B  B9  1  0.10438200  0.29832000  0.63191300  1
  B  B10  1  0.92046900  0.14894300  0.84052700  1
  B  B11  1  0.14894300  0.92046900  0.34052700  1
  B  B12  1  0.08437900  0.82806500  0.18141200  1
  B  B13  1  0.82806500  0.08437900  0.68141200  1
  H  H14  1  0.66673400  0.17441800  0.29380400  1
  H  H15  1  0.17441800  0.66673400  0.79380400  1
  H  H16  1  0.64206500  0.41553300  0.35749400  1
  H  H17  1  0.41553300  0.64206500  0.85749400  1
  H  H18  1  0.74757700  0.30767400  0.47461400  1
  H  H19  1  0.30767400  0.74757700  0.97461400  1
  O  O20  1  0.83963600  0.73699600  0.05600700  1
  O  O21  1  0.73699600  0.83963600  0.55600700  1
  O  O22  1  0.55678900  0.34377000  0.29538500  1
  O  O23  1  0.34377000  0.55678900  0.79538500  1
  O  O24  1  0.29045400  0.90070000  0.10844700  1
  O  O25  1  0.90070000  0.29045400  0.60844700  1
  O  O26  1  0.52036300  0.14458800  0.06311300  1
  O  O27  1  0.14458800  0.52036300  0.56311300  1
  O  O28  1  0.84404700  0.98912000  0.16153000  1
  O  O29  1  0.98912000  0.84404700  0.66153000  1
  O  O30  1  0.15774300  0.58291000  0.15957600  1
  O  O31  1  0.58291000  0.15774300  0.65957600  1
  O  O32  1  0.78317000  0.07662400  0.80853300  1
  O  O33  1  0.07662400  0.78317000  0.30853300  1
  O  O34  1  0.25030300  0.08135400  0.25951500  1
  O  O35  1  0.08135400  0.25030300  0.75951500  1
  O  O36  1  0.91765200  0.11595800  0.95533200  1
  O  O37  1  0.11595800  0.91765200  0.45533200  1
  O  O38  1  0.09470800  0.32896300  0.08190600  1
  O  O39  1  0.32896300  0.09470800  0.58190600  1
  O  O40  1  0.71408400  0.45647100  0.41258200  1
  O  O41  1  0.45647100  0.71408400  0.91258200  1
