# generated using pymatgen
data_Ba3SrMg4F16
_symmetry_space_group_name_H-M   'P 1'
_cell_length_a   9.60655574
_cell_length_b   9.60655574
_cell_length_c   11.72535811
_cell_angle_alpha   53.14408867
_cell_angle_beta   53.14408867
_cell_angle_gamma   24.78333646
_symmetry_Int_Tables_number   1
_chemical_formula_structural   Ba3SrMg4F16
_chemical_formula_sum   'Ba3 Sr1 Mg4 F16'
_cell_volume   357.98775824
_cell_formula_units_Z   1
loop_
 _symmetry_equiv_pos_site_id
 _symmetry_equiv_pos_as_xyz
  1  'x, y, z'
loop_
 _atom_site_type_symbol
 _atom_site_label
 _atom_site_symmetry_multiplicity
 _atom_site_fract_x
 _atom_site_fract_y
 _atom_site_fract_z
 _atom_site_occupancy
  Ba  Ba0  1  0.34968950  0.34968950  0.72384200  1
  Ba  Ba1  1  0.34896950  0.34896950  0.22406400  1
  Ba  Ba2  1  0.64958450  0.64958450  0.17330900  1
  Sr  Sr3  1  0.65972600  0.65972600  0.65865600  1
  Mg  Mg4  1  0.08542050  0.08542050  0.00285900  1
  Mg  Mg5  1  0.08510000  0.08510000  0.51471500  1
  Mg  Mg6  1  0.91680700  0.91680700  0.92721300  1
  Mg  Mg7  1  0.91501150  0.91501150  0.42802100  1
  F  F8  1  0.16380900  0.16380900  0.30197400  1
  F  F9  1  0.15872500  0.15872500  0.78955000  1
  F  F10  1  0.83621000  0.83621000  0.87293400  1
  F  F11  1  0.83254900  0.83254900  0.37812400  1
  F  F12  1  0.02628000  0.02628000  0.22391200  1
  F  F13  1  0.02795350  0.02795350  0.72648300  1
  F  F14  1  0.97040500  0.97040500  0.03403700  1
  F  F15  1  0.97286900  0.97286900  0.53052100  1
  F  F16  1  0.58149950  0.58149950  0.01639400  1
  F  F17  1  0.58305150  0.58305150  0.52480000  1
  F  F18  1  0.41878300  0.41878300  0.93033900  1
  F  F19  1  0.42025950  0.42025950  0.42939800  1
  F  F20  1  0.19602500  0.19602500  0.99051700  1
  F  F21  1  0.19674450  0.19674450  0.50371500  1
  F  F22  1  0.80350750  0.80350750  0.13469900  1
  F  F23  1  0.80102200  0.80102200  0.63482300  1
