# generated using pymatgen
data_P2O5
_symmetry_space_group_name_H-M   'P 1'
_cell_length_a   4.92382107
_cell_length_b   7.30311750
_cell_length_c   20.49318331
_cell_angle_alpha   90.00000000
_cell_angle_beta   90.00000000
_cell_angle_gamma   90.00000000
_symmetry_Int_Tables_number   1
_chemical_formula_structural   P2O5
_chemical_formula_sum   'P4 O10'
_cell_volume   736.91937536
_cell_formula_units_Z   2
loop_
 _symmetry_equiv_pos_site_id
 _symmetry_equiv_pos_as_xyz
  1  'x, y, z'
loop_
 _atom_site_type_symbol
 _atom_site_label
 _atom_site_symmetry_multiplicity
 _atom_site_fract_x
 _atom_site_fract_y
 _atom_site_fract_z
 _atom_site_occupancy
  P  P0  1  0.50000000  0.44078762  0.93059435  1
  P  P1  1  0.00000000  0.94078762  0.06940565  1
  P  P2  1  0.50000000  0.79138537  0.00454552  1
  P  P3  1  0.00000000  0.29138537  0.99545448  1
  O  O4  1  0.00000000  0.02130047  0.13401965  1
  O  O5  1  0.50000000  0.57498890  0.99306240  1
  O  O6  1  0.00000000  0.07498890  0.00693760  1
  O  O7  1  0.50000000  0.52130047  0.86598035  1
  O  O8  1  0.50000000  0.91226820  0.94807965  1
  O  O9  1  0.00000000  0.41226820  0.05192035  1
  O  O10  1  0.74987916  0.30752972  0.94608343  1
  O  O11  1  0.24987916  0.80752972  0.05391657  1
  O  O12  1  0.25012084  0.30752972  0.94608343  1
  O  O13  1  0.75012084  0.80752972  0.05391657  1
