# generated using pymatgen
data_NaLiBrCl
_symmetry_space_group_name_H-M   'P 1'
_cell_length_a   4.15161391
_cell_length_b   4.15161391
_cell_length_c   13.53493980
_cell_angle_alpha   90.00000000
_cell_angle_beta   90.00000000
_cell_angle_gamma   120.00000000
_symmetry_Int_Tables_number   1
_chemical_formula_structural   NaLiBrCl
_chemical_formula_sum   'Na2 Li2 Br2 Cl2'
_cell_volume   202.03233183
_cell_formula_units_Z   2
loop_
 _symmetry_equiv_pos_site_id
 _symmetry_equiv_pos_as_xyz
  1  'x, y, z'
loop_
 _atom_site_type_symbol
 _atom_site_label
 _atom_site_symmetry_multiplicity
 _atom_site_fract_x
 _atom_site_fract_y
 _atom_site_fract_z
 _atom_site_occupancy
  Na  Na0  1  0.33333333  0.66666667  0.25149487  1
  Na  Na1  1  0.66666667  0.33333333  0.75149487  1
  Li  Li2  1  -0.00000000  -0.00000000  0.99061032  1
  Li  Li3  1  -0.00000000  -0.00000000  0.49061032  1
  Br  Br4  1  0.66666667  0.33333333  0.41016355  1
  Br  Br5  1  0.33333333  0.66666667  0.91016355  1
  Cl  Cl6  1  -0.00000000  -0.00000000  0.66004025  1
  Cl  Cl7  1  -0.00000000  -0.00000000  0.16004025  1
