# generated using pymatgen
data_NaPbF3
_symmetry_space_group_name_H-M   'P 1'
_cell_length_a   6.17817112
_cell_length_b   6.17817112
_cell_length_c   6.28772943
_cell_angle_alpha   60.51731804
_cell_angle_beta   60.51731804
_cell_angle_gamma   59.89754003
_symmetry_Int_Tables_number   1
_chemical_formula_structural   NaPbF3
_chemical_formula_sum   'Na2 Pb2 F6'
_cell_volume   170.88664455
_cell_formula_units_Z   2
loop_
 _symmetry_equiv_pos_site_id
 _symmetry_equiv_pos_as_xyz
  1  'x, y, z'
loop_
 _atom_site_type_symbol
 _atom_site_label
 _atom_site_symmetry_multiplicity
 _atom_site_fract_x
 _atom_site_fract_y
 _atom_site_fract_z
 _atom_site_occupancy
  Na  Na0  1  0.98644355  0.48667304  0.04063266  1
  Na  Na1  1  0.48667304  0.98644355  0.54063266  1
  Pb  Pb2  1  0.70327735  0.20327741  0.89086654  1
  Pb  Pb3  1  0.20327741  0.70327735  0.39086654  1
  F  F4  1  0.35504562  0.62784989  0.71849984  1
  F  F5  1  0.12799582  0.29926097  0.71835027  1
  F  F6  1  0.79852968  0.85549867  0.71883769  1
  F  F7  1  0.85549867  0.79852968  0.21883769  1
  F  F8  1  0.62784989  0.35504562  0.21849984  1
  F  F9  1  0.29926097  0.12799582  0.21835027  1
