# generated using pymatgen
data_AgClO3
_symmetry_space_group_name_H-M   'P 1'
_cell_length_a   6.62715870
_cell_length_b   6.62715870
_cell_length_c   6.62715870
_cell_angle_alpha   90.00000000
_cell_angle_beta   90.00000000
_cell_angle_gamma   90.00000000
_symmetry_Int_Tables_number   1
_chemical_formula_structural   AgClO3
_chemical_formula_sum   'Ag4 Cl4 O12'
_cell_volume   291.05972333
_cell_formula_units_Z   4
loop_
 _symmetry_equiv_pos_site_id
 _symmetry_equiv_pos_as_xyz
  1  'x, y, z'
loop_
 _atom_site_type_symbol
 _atom_site_label
 _atom_site_symmetry_multiplicity
 _atom_site_fract_x
 _atom_site_fract_y
 _atom_site_fract_z
 _atom_site_occupancy
  Ag  Ag0  1  0.07506621  0.07506621  0.07506621  1
  Ag  Ag1  1  0.42493379  0.92493379  0.57506621  1
  Ag  Ag2  1  0.57506621  0.42493379  0.92493379  1
  Ag  Ag3  1  0.92493379  0.57506621  0.42493379  1
  Cl  Cl4  1  0.08506659  0.58506659  0.91493341  1
  Cl  Cl5  1  0.41493341  0.41493341  0.41493341  1
  Cl  Cl6  1  0.58506659  0.91493341  0.08506659  1
  Cl  Cl7  1  0.91493341  0.08506659  0.58506659  1
  O  O8  1  0.00861813  0.20096180  0.41466802  1
  O  O9  1  0.08533198  0.99138187  0.70096180  1
  O  O10  1  0.20096180  0.41466802  0.00861813  1
  O  O11  1  0.29903820  0.58533198  0.50861813  1
  O  O12  1  0.41466802  0.00861813  0.20096180  1
  O  O13  1  0.49138187  0.79903820  0.91466802  1
  O  O14  1  0.50861813  0.29903820  0.58533198  1
  O  O15  1  0.58533198  0.50861813  0.29903820  1
  O  O16  1  0.70096180  0.08533198  0.99138187  1
  O  O17  1  0.79903820  0.91466802  0.49138187  1
  O  O18  1  0.91466802  0.49138187  0.79903820  1
  O  O19  1  0.99138187  0.70096180  0.08533198  1
