# generated using pymatgen
data_CsAsS2
_symmetry_space_group_name_H-M   'P 1'
_cell_length_a   5.35736923
_cell_length_b   5.50905566
_cell_length_c   9.57236352
_cell_angle_alpha   82.30189953
_cell_angle_beta   89.70967102
_cell_angle_gamma   89.78627574
_symmetry_Int_Tables_number   1
_chemical_formula_structural   CsAsS2
_chemical_formula_sum   'Cs2 As2 S4'
_cell_volume   279.96808462
_cell_formula_units_Z   2
loop_
 _symmetry_equiv_pos_site_id
 _symmetry_equiv_pos_as_xyz
  1  'x, y, z'
loop_
 _atom_site_type_symbol
 _atom_site_label
 _atom_site_symmetry_multiplicity
 _atom_site_fract_x
 _atom_site_fract_y
 _atom_site_fract_z
 _atom_site_occupancy
  Cs  Cs0  1  0.88394576  0.47251715  0.17601733  1
  Cs  Cs1  1  0.38701573  0.06698333  0.79713580  1
  As  As2  1  0.34993524  0.95828171  0.39930834  1
  As  As3  1  0.85155265  0.57536201  0.57400331  1
  S  S4  1  0.89386999  0.57823761  0.80136390  1
  S  S5  1  0.26903294  0.55034284  0.48555078  1
  S  S6  1  0.76805747  0.98188497  0.48464479  1
  S  S7  1  0.39109523  0.96216538  0.17117375  1
