# generated using pymatgen
data_GeAsP
_symmetry_space_group_name_H-M   'P 1'
_cell_length_a   5.14793202
_cell_length_b   5.14733787
_cell_length_c   5.47679191
_cell_angle_alpha   89.99794399
_cell_angle_beta   90.00000000
_cell_angle_gamma   90.00000000
_symmetry_Int_Tables_number   1
_chemical_formula_structural   GeAsP
_chemical_formula_sum   'Ge2 As2 P2'
_cell_volume   145.12482864
_cell_formula_units_Z   2
loop_
 _symmetry_equiv_pos_site_id
 _symmetry_equiv_pos_as_xyz
  1  'x, y, z'
loop_
 _atom_site_type_symbol
 _atom_site_label
 _atom_site_symmetry_multiplicity
 _atom_site_fract_x
 _atom_site_fract_y
 _atom_site_fract_z
 _atom_site_occupancy
  Ge  Ge0  1  0.68510543  0.74510073  0.99981017  1
  Ge  Ge1  1  0.18510543  0.25489927  0.00018983  1
  As  As2  1  0.84038156  0.09366679  0.28345409  1
  As  As3  1  0.34038156  0.90633321  0.71654591  1
  P  P4  1  0.51740301  0.41698550  0.25843799  1
  P  P5  1  0.01740301  0.58301450  0.74156201  1
