# generated using pymatgen
data_RbNa(BH4)2
_symmetry_space_group_name_H-M   'P 1'
_cell_length_a   4.77277166
_cell_length_b   4.77277166
_cell_length_c   7.43682076
_cell_angle_alpha   89.99791113
_cell_angle_beta   89.99791113
_cell_angle_gamma   60.06655821
_symmetry_Int_Tables_number   1
_chemical_formula_structural   RbNa(BH4)2
_chemical_formula_sum   'Rb1 Na1 B2 H8'
_cell_volume   146.80814261
_cell_formula_units_Z   1
loop_
 _symmetry_equiv_pos_site_id
 _symmetry_equiv_pos_as_xyz
  1  'x, y, z'
loop_
 _atom_site_type_symbol
 _atom_site_label
 _atom_site_symmetry_multiplicity
 _atom_site_fract_x
 _atom_site_fract_y
 _atom_site_fract_z
 _atom_site_occupancy
  Rb  Rb0  1  0.99984836  0.99984836  0.84757595  1
  Na  Na1  1  0.33317002  0.33317002  0.30968239  1
  B  B2  1  0.33325437  0.33325437  0.65185091  1
  B  B3  1  0.66662448  0.66662448  0.15812443  1
  H  H4  1  0.33333384  0.33333384  0.81687180  1
  H  H5  1  0.66660084  0.66660084  0.99361168  1
  H  H6  1  0.80675322  0.38612559  0.21476945  1
  H  H7  1  0.47434542  0.05226614  0.59803964  1
  H  H8  1  0.80699494  0.80699494  0.21479319  1
  H  H9  1  0.38612559  0.80675322  0.21476945  1
  H  H10  1  0.05226614  0.47434542  0.59803964  1
  H  H11  1  0.47401716  0.47401716  0.59791149  1
