# generated using pymatgen
data_Al9Si2BO19
_symmetry_space_group_name_H-M   'P 1'
_cell_length_a   8.12005008
_cell_length_b   8.12005008
_cell_length_c   7.67617076
_cell_angle_alpha   87.78977475
_cell_angle_beta   87.78977475
_cell_angle_gamma   41.79976709
_symmetry_Int_Tables_number   1
_chemical_formula_structural   Al9Si2BO19
_chemical_formula_sum   'Al9 Si2 B1 O19'
_cell_volume   337.06293236
_cell_formula_units_Z   1
loop_
 _symmetry_equiv_pos_site_id
 _symmetry_equiv_pos_as_xyz
  1  'x, y, z'
loop_
 _atom_site_type_symbol
 _atom_site_label
 _atom_site_symmetry_multiplicity
 _atom_site_fract_x
 _atom_site_fract_y
 _atom_site_fract_z
 _atom_site_occupancy
  Al  Al0  1  0.44930800  0.44930800  0.16717600  1
  Al  Al1  1  0.56179400  0.56179400  0.68569300  1
  Al  Al2  1  0.62135000  0.13501300  0.83611000  1
  Al  Al3  1  0.13501300  0.62135000  0.83611000  1
  Al  Al4  1  0.37087000  0.86423900  0.34991700  1
  Al  Al5  1  0.86423900  0.37087000  0.34991700  1
  Al  Al6  1  0.25321900  0.25321900  0.14718900  1
  Al  Al7  1  0.79558400  0.79558400  0.50741800  1
  Al  Al8  1  0.29710900  0.29710900  0.50319700  1
  Si  Si9  1  0.70446600  0.70446600  0.00362800  1
  Si  Si10  1  0.95075500  0.95075500  0.18111500  1
  B  B11  1  0.02348100  0.02348100  0.63666600  1
  O  O12  1  0.45095400  0.45095400  0.76298400  1
  O  O13  1  0.54445900  0.54445900  0.29026500  1
  O  O14  1  0.31419700  0.31419700  0.94432500  1
  O  O15  1  0.68118300  0.68118300  0.45384100  1
  O  O16  1  0.04933200  0.04933200  0.26413700  1
  O  O17  1  0.95022300  0.95022300  0.74788600  1
  O  O18  1  0.80812600  0.80812600  0.92688700  1
  O  O19  1  0.19434900  0.19434900  0.39219700  1
  O  O20  1  0.71607500  0.17781000  0.05505000  1
  O  O21  1  0.17781000  0.71607500  0.05505000  1
  O  O22  1  0.27061300  0.85140700  0.57949700  1
  O  O23  1  0.85140700  0.27061300  0.57949700  1
  O  O24  1  0.46083100  0.92117200  0.13310800  1
  O  O25  1  0.92117200  0.46083100  0.13310800  1
  O  O26  1  0.55907600  0.06695300  0.62819100  1
  O  O27  1  0.06695300  0.55907600  0.62819100  1
  O  O28  1  0.63512000  0.63512000  0.85312800  1
  O  O29  1  0.34868300  0.34868300  0.29071500  1
  O  O30  1  0.87455200  0.87455200  0.33341200  1
