# generated using pymatgen
data_Li3NbOF6
_symmetry_space_group_name_H-M   'P 1'
_cell_length_a   5.21083104
_cell_length_b   5.28323222
_cell_length_c   17.42249456
_cell_angle_alpha   90.00000000
_cell_angle_beta   90.00000000
_cell_angle_gamma   90.00000000
_symmetry_Int_Tables_number   1
_chemical_formula_structural   Li3NbOF6
_chemical_formula_sum   'Li12 Nb4 O4 F24'
_cell_volume   479.64180564
_cell_formula_units_Z   4
loop_
 _symmetry_equiv_pos_site_id
 _symmetry_equiv_pos_as_xyz
  1  'x, y, z'
loop_
 _atom_site_type_symbol
 _atom_site_label
 _atom_site_symmetry_multiplicity
 _atom_site_fract_x
 _atom_site_fract_y
 _atom_site_fract_z
 _atom_site_occupancy
  Li  Li0  1  0.73150973  0.97245129  0.25227618  1
  Li  Li1  1  0.26972455  0.01166886  0.14942338  1
  Li  Li2  1  0.73281042  0.99819008  0.51439235  1
  Li  Li3  1  0.76718958  0.00180992  0.01439235  1
  Li  Li4  1  0.23027545  0.98833114  0.64942338  1
  Li  Li5  1  0.76849027  0.02754871  0.75227618  1
  Li  Li6  1  0.26849027  0.47245129  0.24772382  1
  Li  Li7  1  0.73027545  0.51166886  0.35057662  1
  Li  Li8  1  0.26718958  0.49819008  0.98560765  1
  Li  Li9  1  0.23281042  0.50180992  0.48560765  1
  Li  Li10  1  0.76972455  0.48833114  0.85057662  1
  Li  Li11  1  0.23150973  0.52754871  0.74772382  1
  Nb  Nb12  1  0.27580121  0.99656562  0.87217599  1
  Nb  Nb13  1  0.22419879  0.00343438  0.37217599  1
  Nb  Nb14  1  0.72419879  0.49656562  0.62782401  1
  Nb  Nb15  1  0.77580121  0.50343438  0.12782401  1
  O  O16  1  0.88631521  0.78253580  0.65215786  1
  O  O17  1  0.61368479  0.21746420  0.15215786  1
  O  O18  1  0.11368479  0.28253580  0.84784214  1
  O  O19  1  0.38631521  0.71746420  0.34784214  1
  F  F20  1  0.99931084  0.77743134  0.81013342  1
  F  F21  1  0.96925716  0.85245789  0.10672953  1
  F  F22  1  0.03584896  0.83492215  0.94989105  1
  F  F23  1  0.86157554  0.87029288  0.36156893  1
  F  F24  1  0.11055129  0.86465216  0.47789696  1
  F  F25  1  0.39903583  0.92909862  0.75974129  1
  F  F26  1  0.10096417  0.07090138  0.25974129  1
  F  F27  1  0.38944871  0.13534784  0.97789696  1
  F  F28  1  0.63842446  0.12970712  0.86156893  1
  F  F29  1  0.46415104  0.16507785  0.44989105  1
  F  F30  1  0.53074284  0.14754211  0.60672953  1
  F  F31  1  0.50068916  0.22256866  0.31013342  1
  F  F32  1  0.00068916  0.27743134  0.68986658  1
  F  F33  1  0.03074284  0.35245789  0.39327047  1
  F  F34  1  0.96415104  0.33492215  0.55010895  1
  F  F35  1  0.13842446  0.37029288  0.13843107  1
  F  F36  1  0.88944871  0.36465216  0.02210304  1
  F  F37  1  0.60096417  0.42909862  0.74025871  1
  F  F38  1  0.89903583  0.57090138  0.24025871  1
  F  F39  1  0.61055129  0.63534784  0.52210304  1
  F  F40  1  0.36157554  0.62970712  0.63843107  1
  F  F41  1  0.53584896  0.66507785  0.05010895  1
  F  F42  1  0.46925716  0.64754211  0.89327047  1
  F  F43  1  0.49931084  0.72256866  0.18986658  1
