# generated using pymatgen
data_Y(PO3)3
_symmetry_space_group_name_H-M   'P 1'
_cell_length_a   6.98152110
_cell_length_b   6.98152110
_cell_length_c   7.24605091
_cell_angle_alpha   90.00000000
_cell_angle_beta   90.00000000
_cell_angle_gamma   105.01804601
_symmetry_Int_Tables_number   1
_chemical_formula_structural   Y(PO3)3
_chemical_formula_sum   'Y2 P6 O18'
_cell_volume   341.12110848
_cell_formula_units_Z   2
loop_
 _symmetry_equiv_pos_site_id
 _symmetry_equiv_pos_as_xyz
  1  'x, y, z'
loop_
 _atom_site_type_symbol
 _atom_site_label
 _atom_site_symmetry_multiplicity
 _atom_site_fract_x
 _atom_site_fract_y
 _atom_site_fract_z
 _atom_site_occupancy
  Y  Y0  1  0.62710352  0.62710352  1.00000000  1
  Y  Y1  1  0.37289648  0.37289648  0.50000000  1
  P  P2  1  0.16613333  0.80957128  0.04277473  1
  P  P3  1  0.83386667  0.19042872  0.54277473  1
  P  P4  1  0.80957128  0.16613333  0.95722527  1
  P  P5  1  0.19042872  0.83386667  0.45722527  1
  P  P6  1  0.25024147  0.25024147  1.00000000  1
  P  P7  1  0.74975853  0.74975853  0.50000000  1
  O  O8  1  0.24863644  0.02730521  0.95262537  1
  O  O9  1  0.75136356  0.97269479  0.45262537  1
  O  O10  1  0.02730521  0.24863644  0.04737463  1
  O  O11  1  0.97269479  0.75136356  0.54737463  1
  O  O12  1  0.32905821  0.36768853  0.82773103  1
  O  O13  1  0.67094179  0.63231147  0.32773103  1
  O  O14  1  0.36768853  0.32905821  0.17226897  1
  O  O15  1  0.63231147  0.67094179  0.67226897  1
  O  O16  1  0.29180401  0.67098801  0.46917505  1
  O  O17  1  0.70819599  0.32901199  0.96917505  1
  O  O18  1  0.67098801  0.29180401  0.53082495  1
  O  O19  1  0.32901199  0.70819599  0.03082495  1
  O  O20  1  0.28785542  0.03258049  0.53711073  1
  O  O21  1  0.71214458  0.96741951  0.03711073  1
  O  O22  1  0.03258049  0.28785542  0.46288927  1
  O  O23  1  0.96741951  0.71214458  0.96288927  1
  O  O24  1  0.12914758  0.87085242  0.25000000  1
  O  O25  1  0.87085242  0.12914758  0.75000000  1
