# generated using pymatgen
data_Al5HO8
_symmetry_space_group_name_H-M   'P 1'
_cell_length_a   5.57080790
_cell_length_b   5.57080790
_cell_length_c   8.75030671
_cell_angle_alpha   90.00000000
_cell_angle_beta   90.00000000
_cell_angle_gamma   120.00000000
_symmetry_Int_Tables_number   1
_chemical_formula_structural   Al5HO8
_chemical_formula_sum   'Al10 H2 O16'
_cell_volume   235.17452415
_cell_formula_units_Z   2
loop_
 _symmetry_equiv_pos_site_id
 _symmetry_equiv_pos_as_xyz
  1  'x, y, z'
loop_
 _atom_site_type_symbol
 _atom_site_label
 _atom_site_symmetry_multiplicity
 _atom_site_fract_x
 _atom_site_fract_y
 _atom_site_fract_z
 _atom_site_occupancy
  Al  Al0  1  0.16570441  0.83429559  0.36578083  1
  Al  Al1  1  0.16570441  0.33140883  0.36578083  1
  Al  Al2  1  0.66859117  0.83429559  0.36578083  1
  Al  Al3  1  0.83429559  0.16570441  0.86578083  1
  Al  Al4  1  0.83429559  0.66859117  0.86578083  1
  Al  Al5  1  0.33140883  0.16570441  0.86578083  1
  Al  Al6  1  0.66666667  0.33333333  0.15836617  1
  Al  Al7  1  0.33333333  0.66666667  0.65836617  1
  Al  Al8  1  0.33333333  0.66666667  0.04811315  1
  Al  Al9  1  0.66666667  0.33333333  0.54811315  1
  H  H10  1  0.00000000  0.00000000  0.09710550  1
  H  H11  1  0.00000000  0.00000000  0.59710550  1
  O  O12  1  0.00000000  0.00000000  0.98505469  1
  O  O13  1  0.00000000  0.00000000  0.48505469  1
  O  O14  1  0.51444307  0.48555693  0.00108425  1
  O  O15  1  0.51444307  0.02888614  0.00108425  1
  O  O16  1  0.97111386  0.48555693  0.00108425  1
  O  O17  1  0.48555693  0.51444307  0.50108425  1
  O  O18  1  0.48555693  0.97111386  0.50108425  1
  O  O19  1  0.02888614  0.51444307  0.50108425  1
  O  O20  1  0.33190400  0.16595200  0.26265279  1
  O  O21  1  0.83404800  0.16595200  0.26265279  1
  O  O22  1  0.83404800  0.66809600  0.26265279  1
  O  O23  1  0.66809600  0.83404800  0.76265279  1
  O  O24  1  0.16595200  0.83404800  0.76265279  1
  O  O25  1  0.16595200  0.33190400  0.76265279  1
  O  O26  1  0.33333333  0.66666667  0.25487111  1
  O  O27  1  0.66666667  0.33333333  0.75487111  1
