# generated using pymatgen
data_Y(ClO4)3
_symmetry_space_group_name_H-M   'P 1'
_cell_length_a   9.51837442
_cell_length_b   9.51837442
_cell_length_c   9.51837442
_cell_angle_alpha   52.36871189
_cell_angle_beta   52.36871189
_cell_angle_gamma   52.36871189
_symmetry_Int_Tables_number   1
_chemical_formula_structural   Y(ClO4)3
_chemical_formula_sum   'Y2 Cl6 O24'
_cell_volume   500.49370360
_cell_formula_units_Z   2
loop_
 _symmetry_equiv_pos_site_id
 _symmetry_equiv_pos_as_xyz
  1  'x, y, z'
loop_
 _atom_site_type_symbol
 _atom_site_label
 _atom_site_symmetry_multiplicity
 _atom_site_fract_x
 _atom_site_fract_y
 _atom_site_fract_z
 _atom_site_occupancy
  Y  Y0  1  0.94153014  0.94153014  0.94153014  1
  Y  Y1  1  0.44153014  0.44153014  0.44153014  1
  Cl  Cl2  1  0.03825608  0.65885342  0.30266396  1
  Cl  Cl3  1  0.15885342  0.53825608  0.80266396  1
  Cl  Cl4  1  0.53825608  0.80266396  0.15885342  1
  Cl  Cl5  1  0.30266396  0.03825608  0.65885342  1
  Cl  Cl6  1  0.65885342  0.30266396  0.03825608  1
  Cl  Cl7  1  0.80266396  0.15885342  0.53825608  1
  O  O8  1  0.24492699  0.92839894  0.86884131  1
  O  O9  1  0.11774222  0.72038582  0.79133848  1
  O  O10  1  0.43324711  0.98725334  0.05430495  1
  O  O11  1  0.08384481  0.61606674  0.14983969  1
  O  O12  1  0.11606674  0.58384481  0.64983969  1
  O  O13  1  0.48725334  0.93324711  0.55430495  1
  O  O14  1  0.22038582  0.61774222  0.29133848  1
  O  O15  1  0.05430495  0.43324711  0.98725334  1
  O  O16  1  0.42839894  0.74492699  0.36884131  1
  O  O17  1  0.72038582  0.79133848  0.11774222  1
  O  O18  1  0.58384481  0.64983969  0.11606674  1
  O  O19  1  0.36884131  0.42839894  0.74492699  1
  O  O20  1  0.55430495  0.48725334  0.93324711  1
  O  O21  1  0.92839894  0.86884131  0.24492699  1
  O  O22  1  0.14983969  0.08384481  0.61606674  1
  O  O23  1  0.29133848  0.22038582  0.61774222  1
  O  O24  1  0.61774222  0.29133848  0.22038582  1
  O  O25  1  0.93324711  0.55430495  0.48725334  1
  O  O26  1  0.74492699  0.36884131  0.42839894  1
  O  O27  1  0.61606674  0.14983969  0.08384481  1
  O  O28  1  0.64983969  0.11606674  0.58384481  1
  O  O29  1  0.86884131  0.24492699  0.92839894  1
  O  O30  1  0.79133848  0.11774222  0.72038582  1
  O  O31  1  0.98725334  0.05430495  0.43324711  1
