# generated using pymatgen
data_Bi(PO3)3
_symmetry_space_group_name_H-M   'P 1'
_cell_length_a   7.11868597
_cell_length_b   7.11868597
_cell_length_c   7.32312744
_cell_angle_alpha   90.00000000
_cell_angle_beta   90.00000000
_cell_angle_gamma   104.55045650
_symmetry_Int_Tables_number   1
_chemical_formula_structural   Bi(PO3)3
_chemical_formula_sum   'Bi2 P6 O18'
_cell_volume   359.20201516
_cell_formula_units_Z   2
loop_
 _symmetry_equiv_pos_site_id
 _symmetry_equiv_pos_as_xyz
  1  'x, y, z'
loop_
 _atom_site_type_symbol
 _atom_site_label
 _atom_site_symmetry_multiplicity
 _atom_site_fract_x
 _atom_site_fract_y
 _atom_site_fract_z
 _atom_site_occupancy
  Bi  Bi0  1  0.64364658  0.64364658  1.00000000  1
  Bi  Bi1  1  0.35635342  0.35635342  0.50000000  1
  P  P2  1  0.16881193  0.81507906  0.04532371  1
  P  P3  1  0.83118807  0.18492094  0.54532371  1
  P  P4  1  0.81507906  0.16881193  0.95467629  1
  P  P5  1  0.18492094  0.83118807  0.45467629  1
  P  P6  1  0.24653836  0.24653836  0.00000000  1
  P  P7  1  0.75346164  0.75346164  0.50000000  1
  O  O8  1  0.24467056  0.02669253  0.95368314  1
  O  O9  1  0.75532944  0.97330747  0.45368314  1
  O  O10  1  0.02669253  0.24467056  0.04631686  1
  O  O11  1  0.97330747  0.75532944  0.54631686  1
  O  O12  1  0.31817193  0.36143277  0.82893283  1
  O  O13  1  0.68182807  0.63856723  0.32893283  1
  O  O14  1  0.36143277  0.31817193  0.17106717  1
  O  O15  1  0.63856723  0.68182807  0.67106717  1
  O  O16  1  0.28568002  0.67209950  0.46350514  1
  O  O17  1  0.71431998  0.32790050  0.96350514  1
  O  O18  1  0.67209950  0.28568002  0.53649486  1
  O  O19  1  0.32790050  0.71431998  0.03649486  1
  O  O20  1  0.28320933  0.02381726  0.53884473  1
  O  O21  1  0.71679067  0.97618274  0.03884473  1
  O  O22  1  0.02381726  0.28320933  0.46115527  1
  O  O23  1  0.97618274  0.71679067  0.96115527  1
  O  O24  1  0.12564241  0.87435759  0.25000000  1
  O  O25  1  0.87435759  0.12564241  0.75000000  1
