# generated using pymatgen
data_Y3Sb5O12
_symmetry_space_group_name_H-M   'P 1'
_cell_length_a   9.32188063
_cell_length_b   9.32188063
_cell_length_c   9.32188063
_cell_angle_alpha   109.47122063
_cell_angle_beta   109.47122063
_cell_angle_gamma   109.47122063
_symmetry_Int_Tables_number   1
_chemical_formula_structural   Y3Sb5O12
_chemical_formula_sum   'Y6 Sb10 O24'
_cell_volume   623.57503806
_cell_formula_units_Z   2
loop_
 _symmetry_equiv_pos_site_id
 _symmetry_equiv_pos_as_xyz
  1  'x, y, z'
loop_
 _atom_site_type_symbol
 _atom_site_label
 _atom_site_symmetry_multiplicity
 _atom_site_fract_x
 _atom_site_fract_y
 _atom_site_fract_z
 _atom_site_occupancy
  Y  Y0  1  0.25000000  0.75000000  0.50000000  1
  Y  Y1  1  0.75000000  0.25000000  0.50000000  1
  Y  Y2  1  0.50000000  0.75000000  0.25000000  1
  Y  Y3  1  0.50000000  0.25000000  0.75000000  1
  Y  Y4  1  0.25000000  0.50000000  0.75000000  1
  Y  Y5  1  0.75000000  0.50000000  0.25000000  1
  Sb  Sb6  1  -0.00000000  -0.00000000  0.51566962  1
  Sb  Sb7  1  0.51566962  0.00000000  1.00000000  1
  Sb  Sb8  1  0.00000000  0.51566962  1.00000000  1
  Sb  Sb9  1  0.48433038  0.48433038  0.48433038  1
  Sb  Sb10  1  0.28125602  0.28125602  0.00000000  1
  Sb  Sb11  1  0.71874399  0.71874399  0.00000000  1
  Sb  Sb12  1  1.00000000  0.71874399  0.71874399  1
  Sb  Sb13  1  1.00000000  0.28125602  0.28125602  1
  Sb  Sb14  1  0.71874399  1.00000000  0.71874399  1
  Sb  Sb15  1  0.28125602  1.00000000  0.28125602  1
  O  O16  1  0.70424186  0.00000000  0.50354906  1
  O  O17  1  0.50354906  0.00000000  0.70424186  1
  O  O18  1  0.29575814  0.79930720  0.29575814  1
  O  O19  1  0.29575814  0.29575814  0.79930720  1
  O  O20  1  0.49645094  0.20069280  0.49645094  1
  O  O21  1  0.49645094  0.49645094  0.20069280  1
  O  O22  1  0.50354906  0.70424186  1.00000000  1
  O  O23  1  0.70424186  0.50354906  1.00000000  1
  O  O24  1  0.00000000  0.70424186  0.50354906  1
  O  O25  1  0.20069280  0.49645094  0.49645094  1
  O  O26  1  0.79930720  0.29575814  0.29575814  1
  O  O27  1  1.00000000  0.50354906  0.70424186  1
  O  O28  1  0.19989733  0.00000000  0.47763998  1
  O  O29  1  0.47763998  0.00000000  0.19989733  1
  O  O30  1  0.80010267  0.27774265  0.80010267  1
  O  O31  1  0.80010267  0.80010267  0.27774265  1
  O  O32  1  0.52236002  0.72225735  0.52236002  1
  O  O33  1  0.52236002  0.52236002  0.72225735  1
  O  O34  1  0.47763998  0.19989733  1.00000000  1
  O  O35  1  0.19989733  0.47763998  1.00000000  1
  O  O36  1  0.00000000  0.19989733  0.47763998  1
  O  O37  1  0.72225735  0.52236002  0.52236002  1
  O  O38  1  0.27774265  0.80010267  0.80010267  1
  O  O39  1  -0.00000000  0.47763998  0.19989733  1
