# generated using pymatgen
data_Hg(IO3)2
_symmetry_space_group_name_H-M   'P 1'
_cell_length_a   10.22210264
_cell_length_b   10.22210264
_cell_length_c   5.37922445
_cell_angle_alpha   90.00000000
_cell_angle_beta   90.00000000
_cell_angle_gamma   120.00000000
_symmetry_Int_Tables_number   1
_chemical_formula_structural   Hg(IO3)2
_chemical_formula_sum   'Hg3 I6 O18'
_cell_volume   486.77780989
_cell_formula_units_Z   3
loop_
 _symmetry_equiv_pos_site_id
 _symmetry_equiv_pos_as_xyz
  1  'x, y, z'
loop_
 _atom_site_type_symbol
 _atom_site_label
 _atom_site_symmetry_multiplicity
 _atom_site_fract_x
 _atom_site_fract_y
 _atom_site_fract_z
 _atom_site_occupancy
  Hg  Hg0  1  0.66666667  0.33333333  0.45516969  1
  Hg  Hg1  1  0.33333333  0.66666667  0.02133821  1
  Hg  Hg2  1  0.00000000  -0.00000000  0.52404842  1
  I  I3  1  0.00058635  0.64188655  0.02872890  1
  I  I4  1  0.68350740  0.68177034  0.51655893  1
  I  I5  1  0.35811345  0.35869979  0.02872890  1
  I  I6  1  0.99826295  0.31649260  0.51655893  1
  I  I7  1  0.31822966  0.00173705  0.51655893  1
  I  I8  1  0.64130021  0.99941365  0.02872890  1
  O  O9  1  0.09676754  0.57901505  0.80830940  1
  O  O10  1  0.89387001  0.46559091  0.20524391  1
  O  O11  1  0.73773588  0.55680303  0.67958509  1
  O  O12  1  0.81906716  0.26226412  0.67958509  1
  O  O13  1  0.53440909  0.42827909  0.20524391  1
  O  O14  1  0.42098495  0.51775248  0.80830940  1
  O  O15  1  0.57172091  0.10612999  0.20524391  1
  O  O16  1  0.25961795  0.42829578  0.23004131  1
  O  O17  1  0.44319697  0.18093284  0.67958509  1
  O  O18  1  0.48224752  0.90323246  0.80830940  1
  O  O19  1  0.08042063  0.23618958  0.73167857  1
  O  O20  1  0.23124281  0.07668154  0.29979892  1
  O  O21  1  0.92331846  0.15456126  0.29979892  1
  O  O22  1  0.15576896  0.91957937  0.73167857  1
  O  O23  1  0.16867784  0.74038205  0.23004131  1
  O  O24  1  0.76381042  0.84423104  0.73167857  1
  O  O25  1  0.84543874  0.76875719  0.29979892  1
  O  O26  1  0.57170422  0.83132216  0.23004131  1
