# generated using pymatgen
data_Li2Ti(IO3)6
_symmetry_space_group_name_H-M   'P 1'
_cell_length_a   9.53491395
_cell_length_b   9.53491395
_cell_length_c   5.18293700
_cell_angle_alpha   90.00000000
_cell_angle_beta   90.00000000
_cell_angle_gamma   120.00000000
_symmetry_Int_Tables_number   1
_chemical_formula_structural   Li2Ti(IO3)6
_chemical_formula_sum   'Li2 Ti1 I6 O18'
_cell_volume   408.07512040
_cell_formula_units_Z   1
loop_
 _symmetry_equiv_pos_site_id
 _symmetry_equiv_pos_as_xyz
  1  'x, y, z'
loop_
 _atom_site_type_symbol
 _atom_site_label
 _atom_site_symmetry_multiplicity
 _atom_site_fract_x
 _atom_site_fract_y
 _atom_site_fract_z
 _atom_site_occupancy
  Li  Li0  1  0.66666667  0.33333333  0.27499800  1
  Li  Li1  1  -0.00000000  0.00000000  0.77902100  1
  Ti  Ti2  1  0.33333333  0.66666667  0.33616800  1
  I  I3  1  0.69476533  0.69948667  0.21625700  1
  I  I4  1  0.00472133  0.30523467  0.21625700  1
  I  I5  1  0.30051333  0.99527867  0.21625700  1
  I  I6  1  0.99029433  0.63917467  0.70356700  1
  I  I7  1  0.64888033  0.00970567  0.70356700  1
  I  I8  1  0.36082533  0.35111967  0.70356700  1
  O  O9  1  0.53881233  0.42228967  0.50113400  1
  O  O10  1  0.88347733  0.46118767  0.50113400  1
  O  O11  1  0.57771033  0.11652267  0.50113400  1
  O  O12  1  0.12945433  0.91016667  0.99565000  1
  O  O13  1  0.78071233  0.87054567  0.99565000  1
  O  O14  1  0.08983333  0.21928767  0.99565000  1
  O  O15  1  0.47496933  0.62276367  0.11846600  1
  O  O16  1  0.14779433  0.52503067  0.11846600  1
  O  O17  1  0.37723633  0.85220567  0.11846600  1
  O  O18  1  0.19844033  0.72382067  0.55528500  1
  O  O19  1  0.52538033  0.80155967  0.55528500  1
  O  O20  1  0.27617933  0.47461967  0.55528500  1
  O  O21  1  0.72405533  0.55246467  0.03375900  1
  O  O22  1  0.82840933  0.27594467  0.03375900  1
  O  O23  1  0.44753533  0.17159067  0.03375900  1
  O  O24  1  0.94333733  0.78054467  0.54291300  1
  O  O25  1  0.83720733  0.05666267  0.54291300  1
  O  O26  1  0.21945533  0.16279267  0.54291300  1
