# generated using pymatgen
data_K5BaF7
_symmetry_space_group_name_H-M   'P 1'
_cell_length_a   6.60912453
_cell_length_b   6.60912453
_cell_length_c   21.90870413
_cell_angle_alpha   89.37216108
_cell_angle_beta   89.37216108
_cell_angle_gamma   33.39664425
_symmetry_Int_Tables_number   1
_chemical_formula_structural   K5BaF7
_chemical_formula_sum   'K10 Ba2 F14'
_cell_volume   526.71985576
_cell_formula_units_Z   2
loop_
 _symmetry_equiv_pos_site_id
 _symmetry_equiv_pos_as_xyz
  1  'x, y, z'
loop_
 _atom_site_type_symbol
 _atom_site_label
 _atom_site_symmetry_multiplicity
 _atom_site_fract_x
 _atom_site_fract_y
 _atom_site_fract_z
 _atom_site_occupancy
  K  K0  1  0.99589676  0.99589676  0.99941412  1
  K  K1  1  0.27253652  0.27253653  0.92631472  1
  K  K2  1  0.72024904  0.72024904  0.07514929  1
  K  K3  1  0.46082518  0.46082518  0.35097767  1
  K  K4  1  0.54358001  0.54358001  0.64923012  1
  K  K5  1  0.00244732  0.00244731  0.50016968  1
  K  K6  1  0.72916580  0.72916580  0.42718415  1
  K  K7  1  0.27646485  0.27646485  0.57367755  1
  K  K8  1  0.54180699  0.54180699  0.85007245  1
  K  K9  1  0.45257519  0.45257519  0.15061399  1
  Ba  Ba10  1  0.20432924  0.20432924  0.25641770  1
  Ba  Ba11  1  0.79501246  0.79501246  0.74922686  1
  F  F12  1  0.56495398  0.56495399  0.24925890  1
  F  F13  1  0.43465649  0.43465649  0.74985363  1
  F  F14  1  0.36102492  0.36102493  0.03784984  1
  F  F15  1  0.63171861  0.63171862  0.96207713  1
  F  F16  1  0.63537088  0.63537088  0.53681729  1
  F  F17  1  0.37011287  0.37011287  0.46290866  1
  F  F18  1  0.79911922  0.79911922  0.18483230  1
  F  F19  1  0.19478410  0.19478410  0.81708166  1
  F  F20  1  0.19494135  0.19494135  0.68243412  1
  F  F21  1  0.81159012  0.81159012  0.31926293  1
  F  F22  1  0.08430451  0.08430451  0.11048690  1
  F  F23  1  0.90473481  0.90473481  0.88444583  1
  F  F24  1  0.90650200  0.90650200  0.61588352  1
  F  F25  1  0.10390077  0.10390077  0.37835300  1
