# generated using pymatgen
data_VBO4
_symmetry_space_group_name_H-M   'P 1'
_cell_length_a   4.85958406
_cell_length_b   5.01833840
_cell_length_c   4.85958406
_cell_angle_alpha   118.95893110
_cell_angle_beta   90.00000000
_cell_angle_gamma   118.95893110
_symmetry_Int_Tables_number   1
_chemical_formula_structural   VBO4
_chemical_formula_sum   'V1 B1 O4'
_cell_volume   86.36949513
_cell_formula_units_Z   1
loop_
 _symmetry_equiv_pos_site_id
 _symmetry_equiv_pos_as_xyz
  1  'x, y, z'
loop_
 _atom_site_type_symbol
 _atom_site_label
 _atom_site_symmetry_multiplicity
 _atom_site_fract_x
 _atom_site_fract_y
 _atom_site_fract_z
 _atom_site_occupancy
  V  V5  1  0.00000000  0.00000000  0.00000000  1.0
  B  B0  1  0.75000000  0.50000000  0.25000000  1.0
  O  O1  1  0.76411624  0.72927863  0.59091670  1.0
  O  O2  1  0.86163807  0.27072137  0.23588376  1.0
  O  O3  1  0.96516239  0.72927863  0.13836193  1.0
  O  O4  1  0.40908330  0.27072137  0.03483761  1.0
