# generated using pymatgen
data_SO2
_symmetry_space_group_name_H-M   'P 1'
_cell_length_a   4.27151027
_cell_length_b   4.27151027
_cell_length_c   6.07000000
_cell_angle_alpha   90.00000000
_cell_angle_beta   90.00000000
_cell_angle_gamma   91.89703795
_symmetry_Int_Tables_number   1
_chemical_formula_structural   SO2
_chemical_formula_sum   'S2 O4'
_cell_volume   110.69130592
_cell_formula_units_Z   2
loop_
 _symmetry_equiv_pos_site_id
 _symmetry_equiv_pos_as_xyz
  1  'x, y, z'
loop_
 _atom_site_type_symbol
 _atom_site_label
 _atom_site_symmetry_multiplicity
 _atom_site_fract_x
 _atom_site_fract_y
 _atom_site_fract_z
 _atom_site_occupancy
  S  S4  1  0.50000000  0.50000000  0.50000000  1.0
  S  S5  1  0.00000000  0.00000000  0.00000000  1.0
  O  O0  1  0.23200000  0.46800000  0.64000000  1.0
  O  O1  1  0.53200000  0.76800000  0.36000000  1.0
  O  O2  1  0.03200000  0.26800000  0.14000000  1.0
  O  O3  1  0.73200000  0.96800000  0.86000000  1.0
