# generated using pymatgen
data_BrF3
_symmetry_space_group_name_H-M   'P 1'
_cell_length_a   4.54252408
_cell_length_b   4.54252408
_cell_length_c   6.61000000
_cell_angle_alpha   90.00000000
_cell_angle_beta   90.00000000
_cell_angle_gamma   108.00089365
_symmetry_Int_Tables_number   1
_chemical_formula_structural   BrF3
_chemical_formula_sum   'Br2 F6'
_cell_volume   129.71794515
_cell_formula_units_Z   2
loop_
 _symmetry_equiv_pos_site_id
 _symmetry_equiv_pos_as_xyz
  1  'x, y, z'
loop_
 _atom_site_type_symbol
 _atom_site_label
 _atom_site_symmetry_multiplicity
 _atom_site_fract_x
 _atom_site_fract_y
 _atom_site_fract_z
 _atom_site_occupancy
  Br  Br0  1  0.15870000  0.84130000  0.25000000  1.0
  Br  Br1  1  0.84130000  0.15870000  0.75000000  1.0
  F  F2  1  0.94200000  0.05800000  0.11000000  1.0
  F  F3  1  0.05800000  0.94200000  0.61000000  1.0
  F  F4  1  0.73000000  0.27000000  0.52200000  1.0
  F  F5  1  0.27000000  0.73000000  0.02200000  1.0
  F  F6  1  0.60600000  0.39400000  0.84800000  1.0
  F  F7  1  0.39400000  0.60600000  0.34800000  1.0
