# generated using pymatgen
data_SBr
_symmetry_space_group_name_H-M   'P 1'
_cell_length_a   4.28914237
_cell_length_b   4.28914237
_cell_length_c   13.49000000
_cell_angle_alpha   90.00000000
_cell_angle_beta   90.00000000
_cell_angle_gamma   104.61440180
_symmetry_Int_Tables_number   1
_chemical_formula_structural   SBr
_chemical_formula_sum   'S4 Br4'
_cell_volume   240.14264003
_cell_formula_units_Z   4
loop_
 _symmetry_equiv_pos_site_id
 _symmetry_equiv_pos_as_xyz
  1  'x, y, z'
loop_
 _atom_site_type_symbol
 _atom_site_label
 _atom_site_symmetry_multiplicity
 _atom_site_fract_x
 _atom_site_fract_y
 _atom_site_fract_z
 _atom_site_occupancy
  S  S4  1  0.19030000  0.40870000  0.95320000  1.0
  S  S5  1  0.40870000  0.19030000  0.04680000  1.0
  S  S6  1  0.69030000  0.90870000  0.54680000  1.0
  S  S7  1  0.90870000  0.69030000  0.45320000  1.0
  Br  Br0  1  0.94333000  0.05667000  0.83814000  1.0
  Br  Br1  1  0.05667000  0.94333000  0.16186000  1.0
  Br  Br2  1  0.44333000  0.55667000  0.66186000  1.0
  Br  Br3  1  0.55667000  0.44333000  0.33814000  1.0
