# generated using pymatgen
data_SiO2
_symmetry_space_group_name_H-M   'P 1'
_cell_length_a   4.95649943
_cell_length_b   6.93329183
_cell_length_c   6.93329183
_cell_angle_alpha   70.04393410
_cell_angle_beta   69.05681651
_cell_angle_gamma   69.05681651
_symmetry_Int_Tables_number   1
_chemical_formula_structural   SiO2
_chemical_formula_sum   'Si4 O8'
_cell_volume   201.49622967
_cell_formula_units_Z   4
loop_
 _symmetry_equiv_pos_site_id
 _symmetry_equiv_pos_as_xyz
  1  'x, y, z'
loop_
 _atom_site_type_symbol
 _atom_site_label
 _atom_site_symmetry_multiplicity
 _atom_site_fract_x
 _atom_site_fract_y
 _atom_site_fract_z
 _atom_site_occupancy
  Si  Si8  1  0.60183000  0.25477000  0.54157000  1.0
  Si  Si9  1  0.39817000  0.74523000  0.45843000  1.0
  Si  Si10  1  0.89817000  0.95843000  0.24523000  1.0
  Si  Si11  1  0.10183000  0.04157000  0.75477000  1.0
  O  O0  1  0.76410000  0.11126000  0.73008000  1.0
  O  O1  1  0.09431000  0.00000000  0.00000000  1.0
  O  O2  1  0.26410000  0.23008000  0.61126000  1.0
  O  O3  1  0.60544000  0.88874000  0.26992000  1.0
  O  O4  1  0.29157000  0.82547000  0.67453000  1.0
  O  O5  1  0.79157000  0.17453000  0.32547000  1.0
  O  O6  1  0.59431000  0.50000000  0.50000000  1.0
  O  O7  1  0.10544000  0.76992000  0.38874000  1.0
