# generated using pymatgen
data_AuO2F
_symmetry_space_group_name_H-M   'P 1'
_cell_length_a   4.34558000
_cell_length_b   5.49481993
_cell_length_c   5.49481993
_cell_angle_alpha   101.88976110
_cell_angle_beta   90.00000000
_cell_angle_gamma   90.00000000
_symmetry_Int_Tables_number   1
_chemical_formula_structural   AuO2F
_chemical_formula_sum   'Au2 O4 F2'
_cell_volume   128.39137342
_cell_formula_units_Z   2
loop_
 _symmetry_equiv_pos_site_id
 _symmetry_equiv_pos_as_xyz
  1  'x, y, z'
loop_
 _atom_site_type_symbol
 _atom_site_label
 _atom_site_symmetry_multiplicity
 _atom_site_fract_x
 _atom_site_fract_y
 _atom_site_fract_z
 _atom_site_occupancy
  Au  Au0  1  0.00000000  0.27601000  0.27601000  1.0
  Au  Au1  1  0.50000000  0.72399000  0.72399000  1.0
  O  O4  1  0.71742000  0.97154000  0.21512000  1.0
  O  O5  1  0.21742000  0.02846000  0.78488000  1.0
  O  O6  1  0.28258000  0.21512000  0.97154000  1.0
  O  O7  1  0.78258000  0.78488000  0.02846000  1.0
  F  F2  1  0.75000000  0.38497000  0.61503000  1.0
  F  F3  1  0.25000000  0.61503000  0.38497000  1.0
