# generated using pymatgen
data_BaNiO3
_symmetry_space_group_name_H-M   'P 1'
_cell_length_a   5.63100000
_cell_length_b   5.63100000
_cell_length_c   4.80800000
_cell_angle_alpha   90.00000000
_cell_angle_beta   90.00000000
_cell_angle_gamma   120.00000000
_symmetry_Int_Tables_number   1
_chemical_formula_structural   BaNiO3
_chemical_formula_sum   'Ba2 Ni2 O6'
_cell_volume   132.02803066
_cell_formula_units_Z   2
loop_
 _symmetry_equiv_pos_site_id
 _symmetry_equiv_pos_as_xyz
  1  'x, y, z'
loop_
 _atom_site_type_symbol
 _atom_site_label
 _atom_site_symmetry_multiplicity
 _atom_site_fract_x
 _atom_site_fract_y
 _atom_site_fract_z
 _atom_site_occupancy
  Ba  Ba0  1  0.66666667  0.33333333  0.75017201  1.0
  Ba  Ba1  1  0.33333333  0.66666667  0.25017201  1.0
  Ni  Ni2  1  0.00000000  0.00000000  0.48826262  1.0
  Ni  Ni3  1  0.00000000  0.00000000  0.98826262  1.0
  O  O4  1  0.85285884  0.14714116  0.23802222  1.0
  O  O5  1  0.70571769  0.85285884  0.73802222  1.0
  O  O6  1  0.14714116  0.29428231  0.73802222  1.0
  O  O7  1  0.85285884  0.70571769  0.23802222  1.0
  O  O8  1  0.14714116  0.85285884  0.73802222  1.0
  O  O9  1  0.29428231  0.14714116  0.23802222  1.0
