# generated using pymatgen
data_RbHO
_symmetry_space_group_name_H-M   'P 1'
_cell_length_a   4.15000000
_cell_length_b   4.30000000
_cell_length_c   6.44326198
_cell_angle_alpha   90.00000000
_cell_angle_beta   108.78645226
_cell_angle_gamma   90.00000000
_symmetry_Int_Tables_number   1
_chemical_formula_structural   RbHO
_chemical_formula_sum   'Rb2 H2 O2'
_cell_volume   108.85449993
_cell_formula_units_Z   2
loop_
 _symmetry_equiv_pos_site_id
 _symmetry_equiv_pos_as_xyz
  1  'x, y, z'
loop_
 _atom_site_type_symbol
 _atom_site_label
 _atom_site_symmetry_multiplicity
 _atom_site_fract_x
 _atom_site_fract_y
 _atom_site_fract_z
 _atom_site_occupancy
  Rb  Rb4  1  0.36000000  0.75000000  0.72000000  1.0
  Rb  Rb5  1  0.64000000  0.25000000  0.28000000  1.0
  H  H0  1  0.04602700  0.60460700  0.09205400  1.0
  H  H1  1  0.95397300  0.10460700  0.90794600  1.0
  O  O2  1  0.11000000  0.75000000  0.22000000  1.0
  O  O3  1  0.89000000  0.25000000  0.78000000  1.0
