# generated using pymatgen
data_CsHO
_symmetry_space_group_name_H-M   'P 1'
_cell_length_a   4.35000000
_cell_length_b   4.51600000
_cell_length_c   6.37735447
_cell_angle_alpha   90.00000000
_cell_angle_beta   109.94088980
_cell_angle_gamma   90.00000000
_symmetry_Int_Tables_number   1
_chemical_formula_structural   CsHO
_chemical_formula_sum   'Cs2 H2 O2'
_cell_volume   117.76937705
_cell_formula_units_Z   2
loop_
 _symmetry_equiv_pos_site_id
 _symmetry_equiv_pos_as_xyz
  1  'x, y, z'
loop_
 _atom_site_type_symbol
 _atom_site_label
 _atom_site_symmetry_multiplicity
 _atom_site_fract_x
 _atom_site_fract_y
 _atom_site_fract_z
 _atom_site_occupancy
  Cs  Cs0  1  0.86000000  0.25000000  0.72000000  1.0
  Cs  Cs1  1  0.14000000  0.75000000  0.28000000  1.0
  H  H2  1  0.55046900  0.39028400  0.10093800  1.0
  H  H3  1  0.44953100  0.89028400  0.89906200  1.0
  O  O4  1  0.61500000  0.25000000  0.23000000  1.0
  O  O5  1  0.38500000  0.75000000  0.77000000  1.0
