# generated using pymatgen
data_PI3
_symmetry_space_group_name_H-M   'P 1'
_cell_length_a   7.13300000
_cell_length_b   7.13300000
_cell_length_c   7.41400000
_cell_angle_alpha   90.00000000
_cell_angle_beta   90.00000000
_cell_angle_gamma   120.00000000
_symmetry_Int_Tables_number   1
_chemical_formula_structural   PI3
_chemical_formula_sum   'P2 I6'
_cell_volume   326.68384720
_cell_formula_units_Z   2
loop_
 _symmetry_equiv_pos_site_id
 _symmetry_equiv_pos_as_xyz
  1  'x, y, z'
loop_
 _atom_site_type_symbol
 _atom_site_label
 _atom_site_symmetry_multiplicity
 _atom_site_fract_x
 _atom_site_fract_y
 _atom_site_fract_z
 _atom_site_occupancy
  P  P0  1  0.66666667  0.33333333  0.64600000  1.0
  P  P1  1  0.33333333  0.66666667  0.14600000  1.0
  I  I2  1  0.34750001  0.31380001  0.50000000  1.0
  I  I3  1  0.65249999  0.68619999  0.00000000  1.0
  I  I4  1  0.31380001  0.96630000  0.00000000  1.0
  I  I5  1  0.96630000  0.65249999  0.50000000  1.0
  I  I6  1  0.68619999  0.03370000  0.50000000  1.0
  I  I7  1  0.03370000  0.34750001  0.00000000  1.0
