# generated using pymatgen
data_NaNiIO6
_symmetry_space_group_name_H-M   'P 1'
_cell_length_a   5.01557504
_cell_length_b   5.01547055
_cell_length_c   5.32009218
_cell_angle_alpha   89.99977757
_cell_angle_beta   90.00044486
_cell_angle_gamma   120.00068919
_symmetry_Int_Tables_number   1
_chemical_formula_structural   NaNiIO6
_chemical_formula_sum   'Na1 Ni1 I1 O6'
_cell_volume   115.89886688
_cell_formula_units_Z   1
loop_
 _symmetry_equiv_pos_site_id
 _symmetry_equiv_pos_as_xyz
  1  'x, y, z'
loop_
 _atom_site_type_symbol
 _atom_site_label
 _atom_site_symmetry_multiplicity
 _atom_site_fract_x
 _atom_site_fract_y
 _atom_site_fract_z
 _atom_site_occupancy
  Na  Na1  1  0.99999995  0.99999990  0.50000000  1.0
  Ni  Ni2  1  0.66658281  0.33316561  0.00000000  1.0
  I  I0  1  0.33333333  0.66666667  0.00000000  1.0
  O  O3  1  0.37622471  0.00254346  0.79918585  1.0
  O  O4  1  0.99744554  0.62378915  0.20083100  1.0
  O  O5  1  0.62631875  0.00254346  0.20081415  1.0
  O  O6  1  0.37622273  0.37368091  0.20081645  1.0
  O  O7  1  0.62634361  0.62378915  0.79916900  1.0
  O  O8  1  0.99745818  0.37368091  0.79918355  1.0
