# generated using pymatgen
data_NaHO
_symmetry_space_group_name_H-M   'P 1'
_cell_length_a   3.39940000
_cell_length_b   3.39940000
_cell_length_c   5.93700365
_cell_angle_alpha   90.00000000
_cell_angle_beta   106.63592543
_cell_angle_gamma   90.00000000
_symmetry_Int_Tables_number   1
_chemical_formula_structural   NaHO
_chemical_formula_sum   'Na2 H2 O2'
_cell_volume   65.73585297
_cell_formula_units_Z   2
loop_
 _symmetry_equiv_pos_site_id
 _symmetry_equiv_pos_as_xyz
  1  'x, y, z'
loop_
 _atom_site_type_symbol
 _atom_site_label
 _atom_site_symmetry_multiplicity
 _atom_site_fract_x
 _atom_site_fract_y
 _atom_site_fract_z
 _atom_site_occupancy
  Na  Na0  1  0.16110000  0.75000000  0.82220000  1.0
  Na  Na1  1  0.83890000  0.25000000  0.17780000  1.0
  H  H2  1  0.37921300  0.99996100  0.32530500  1.0
  H  H3  1  0.62078700  0.49996100  0.67469500  1.0
  O  O4  1  0.36740000  0.75000000  0.23480000  1.0
  O  O5  1  0.63260000  0.25000000  0.76520000  1.0
