# generated using pymatgen
data_NOF
_symmetry_space_group_name_H-M   'P 1'
_cell_length_a   4.10990000
_cell_length_b   4.39100000
_cell_length_c   10.20200000
_cell_angle_alpha   90.00000000
_cell_angle_beta   90.00000000
_cell_angle_gamma   90.00000000
_symmetry_Int_Tables_number   1
_chemical_formula_structural   NOF
_chemical_formula_sum   'N4 O4 F4'
_cell_volume   184.11111632
_cell_formula_units_Z   4
loop_
 _symmetry_equiv_pos_site_id
 _symmetry_equiv_pos_as_xyz
  1  'x, y, z'
loop_
 _atom_site_type_symbol
 _atom_site_label
 _atom_site_symmetry_multiplicity
 _atom_site_fract_x
 _atom_site_fract_y
 _atom_site_fract_z
 _atom_site_occupancy
  N  N0  1  0.65690000  0.00540000  0.60231000  1.0
  N  N1  1  0.15690000  0.49460000  0.39769000  1.0
  N  N2  1  0.34310000  0.50540000  0.89769000  1.0
  N  N3  1  0.84310000  0.99460000  0.10231000  1.0
  O  O4  1  0.89210000  0.96780000  0.64747000  1.0
  O  O5  1  0.39210000  0.53220000  0.35253000  1.0
  O  O6  1  0.10790000  0.46780000  0.85253000  1.0
  O  O7  1  0.60790000  0.03220000  0.14747000  1.0
  F  F8  1  0.53980000  0.36030000  0.62750000  1.0
  F  F9  1  0.03980000  0.13970000  0.37250000  1.0
  F  F10  1  0.46020000  0.86030000  0.87250000  1.0
  F  F11  1  0.96020000  0.63970000  0.12750000  1.0
