# generated using pymatgen
data_IO2F
_symmetry_space_group_name_H-M   'P 1'
_cell_length_a   5.44200000
_cell_length_b   5.66700000
_cell_length_c   7.69000000
_cell_angle_alpha   90.00000000
_cell_angle_beta   90.00000000
_cell_angle_gamma   90.00000000
_symmetry_Int_Tables_number   1
_chemical_formula_structural   IO2F
_chemical_formula_sum   'I4 O8 F4'
_cell_volume   237.15816966
_cell_formula_units_Z   4
loop_
 _symmetry_equiv_pos_site_id
 _symmetry_equiv_pos_as_xyz
  1  'x, y, z'
loop_
 _atom_site_type_symbol
 _atom_site_label
 _atom_site_symmetry_multiplicity
 _atom_site_fract_x
 _atom_site_fract_y
 _atom_site_fract_z
 _atom_site_occupancy
  I  I0  1  0.79471000  0.39990000  0.66435000  1.0
  I  I1  1  0.29471000  0.10010000  0.33565000  1.0
  I  I2  1  0.20529000  0.89990000  0.83565000  1.0
  I  I3  1  0.70529000  0.60010000  0.16435000  1.0
  O  O4  1  0.89540000  0.33580000  0.45020000  1.0
  O  O5  1  0.39540000  0.16420000  0.54980000  1.0
  O  O6  1  0.10460000  0.83580000  0.04980000  1.0
  O  O7  1  0.60460000  0.66420000  0.95020000  1.0
  O  O8  1  0.06310000  0.55370000  0.74310000  1.0
  O  O9  1  0.43690000  0.44630000  0.24310000  1.0
  O  O10  1  0.93690000  0.05370000  0.75690000  1.0
  O  O11  1  0.56310000  0.94630000  0.25690000  1.0
  F  F12  1  0.86590000  0.32210000  0.08460000  1.0
  F  F13  1  0.13410000  0.82210000  0.41540000  1.0
  F  F14  1  0.36590000  0.17790000  0.91540000  1.0
  F  F15  1  0.63410000  0.67790000  0.58460000  1.0
