# generated using pymatgen
data_Te2O5
_symmetry_space_group_name_H-M   'P 1'
_cell_length_a   5.36800000
_cell_length_b   4.69600000
_cell_length_c   7.95500000
_cell_angle_alpha   90.00000000
_cell_angle_beta   104.81999996
_cell_angle_gamma   90.00000000
_symmetry_Int_Tables_number   1
_chemical_formula_structural   Te2O5
_chemical_formula_sum   'Te4 O10'
_cell_volume   193.85983795
_cell_formula_units_Z   2
loop_
 _symmetry_equiv_pos_site_id
 _symmetry_equiv_pos_as_xyz
  1  'x, y, z'
loop_
 _atom_site_type_symbol
 _atom_site_label
 _atom_site_symmetry_multiplicity
 _atom_site_fract_x
 _atom_site_fract_y
 _atom_site_fract_z
 _atom_site_occupancy
  Te  Te0  1  0.14156000  0.11299000  0.38171000  1.0
  Te  Te1  1  0.85844000  0.61299000  0.61829000  1.0
  Te  Te2  1  0.25722000  0.50000000  0.01238000  1.0
  Te  Te3  1  0.74278000  0.00000000  0.98762000  1.0
  O  O4  1  0.87130000  0.96790000  0.50820000  1.0
  O  O5  1  0.12870000  0.46790000  0.49180000  1.0
  O  O6  1  0.66070000  0.82730000  0.77170000  1.0
  O  O7  1  0.33930000  0.32730000  0.22830000  1.0
  O  O8  1  0.83650000  0.20390000  0.20520000  1.0
  O  O9  1  0.16350000  0.70390000  0.79480000  1.0
  O  O10  1  0.96230000  0.27050000  0.90120000  1.0
  O  O11  1  0.03770000  0.77050000  0.09880000  1.0
  O  O12  1  0.46450000  0.26590000  0.90650000  1.0
  O  O13  1  0.53550000  0.76590000  0.09350000  1.0
