# generated using pymatgen
data_CsNO2
_symmetry_space_group_name_H-M   'P 1'
_cell_length_a   5.93130000
_cell_length_b   5.93130000
_cell_length_c   7.85270000
_cell_angle_alpha   90.00000000
_cell_angle_beta   90.00000000
_cell_angle_gamma   120.00000000
_symmetry_Int_Tables_number   1
_chemical_formula_structural   CsNO2
_chemical_formula_sum   'Cs3 N3 O6'
_cell_volume   239.24860797
_cell_formula_units_Z   3
loop_
 _symmetry_equiv_pos_site_id
 _symmetry_equiv_pos_as_xyz
  1  'x, y, z'
loop_
 _atom_site_type_symbol
 _atom_site_label
 _atom_site_symmetry_multiplicity
 _atom_site_fract_x
 _atom_site_fract_y
 _atom_site_fract_z
 _atom_site_occupancy
  Cs  Cs0  1  0.00000000  0.69210000  0.66666667  1.0
  Cs  Cs1  1  0.69210000  0.00000000  0.33333333  1.0
  Cs  Cs2  1  0.30790000  0.30790000  0.00000000  1.0
  N  N3  1  0.69340000  0.00000000  0.83333333  1.0
  N  N4  1  0.00000000  0.69340000  0.16666667  1.0
  N  N5  1  0.30660000  0.30660000  0.50000000  1.0
  O  O6  1  0.90940000  0.52370000  0.05566667  1.0
  O  O7  1  0.47630000  0.38570000  0.38900000  1.0
  O  O8  1  0.61430000  0.09060000  0.72233334  1.0
  O  O9  1  0.38570000  0.47630000  0.61100000  1.0
  O  O10  1  0.52370000  0.90940000  0.94433333  1.0
  O  O11  1  0.09060000  0.61430000  0.27766666  1.0
