# generated using pymatgen
data_Li7BiO6
_symmetry_space_group_name_H-M   'P 1'
_cell_length_a   5.44268663
_cell_length_b   5.44268700
_cell_length_c   5.44268710
_cell_angle_alpha   63.91460817
_cell_angle_beta   63.27439160
_cell_angle_gamma   60.58000378
_symmetry_Int_Tables_number   1
_chemical_formula_structural   Li7BiO6
_chemical_formula_sum   'Li7 Bi1 O6'
_cell_volume   120.37057896
_cell_formula_units_Z   1
loop_
 _symmetry_equiv_pos_site_id
 _symmetry_equiv_pos_as_xyz
  1  'x, y, z'
loop_
 _atom_site_type_symbol
 _atom_site_label
 _atom_site_symmetry_multiplicity
 _atom_site_fract_x
 _atom_site_fract_y
 _atom_site_fract_z
 _atom_site_occupancy
  Li  Li0  1  0.21300000  0.93000000  0.36800000  1.0
  Li  Li1  1  0.84100000  0.53600000  0.36500000  1.0
  Li  Li2  1  0.67000000  0.64100000  0.03200000  1.0
  Li  Li3  1  0.33000000  0.35900000  0.96800000  1.0
  Li  Li4  1  0.15900000  0.46400000  0.63500000  1.0
  Li  Li5  1  0.78700000  0.07000000  0.63200000  1.0
  Li  Li6  1  0.55500000  0.19000000  0.37800000  1.0
  Bi  Bi7  1  0.00000000  0.00000000  0.00000000  1.0
  O  O8  1  0.59500000  0.91500000  0.23700000  1.0
  O  O9  1  0.09300000  0.77000000  0.75100000  1.0
  O  O10  1  0.76200000  0.39300000  0.75600000  1.0
  O  O11  1  0.23800000  0.60700000  0.24400000  1.0
  O  O12  1  0.90700000  0.23000000  0.24900000  1.0
  O  O13  1  0.40500000  0.08500000  0.76300000  1.0
