# generated using pymatgen
data_AsBr3
_symmetry_space_group_name_H-M   'P 1'
_cell_length_a   4.34000000
_cell_length_b   10.24400000
_cell_length_c   12.14800000
_cell_angle_alpha   90.00000000
_cell_angle_beta   90.00000000
_cell_angle_gamma   90.00000000
_symmetry_Int_Tables_number   1
_chemical_formula_structural   AsBr3
_chemical_formula_sum   'As4 Br12'
_cell_volume   540.08744608
_cell_formula_units_Z   4
loop_
 _symmetry_equiv_pos_site_id
 _symmetry_equiv_pos_as_xyz
  1  'x, y, z'
loop_
 _atom_site_type_symbol
 _atom_site_label
 _atom_site_symmetry_multiplicity
 _atom_site_fract_x
 _atom_site_fract_y
 _atom_site_fract_z
 _atom_site_occupancy
  As  As0  1  0.50000000  0.31000000  0.28500000  1.0
  As  As1  1  0.00000000  0.19000000  0.71500000  1.0
  As  As2  1  0.50000000  0.81000000  0.21500000  1.0
  As  As3  1  0.00000000  0.69000000  0.78500000  1.0
  Br  Br4  1  0.75000000  0.14000000  0.38000000  1.0
  Br  Br5  1  0.25000000  0.36000000  0.62000000  1.0
  Br  Br6  1  0.25000000  0.64000000  0.12000000  1.0
  Br  Br7  1  0.75000000  0.86000000  0.88000000  1.0
  Br  Br8  1  0.75000000  0.49000000  0.36000000  1.0
  Br  Br9  1  0.25000000  0.01000000  0.64000000  1.0
  Br  Br10  1  0.25000000  0.99000000  0.14000000  1.0
  Br  Br11  1  0.75000000  0.51000000  0.86000000  1.0
  Br  Br12  1  0.75000000  0.30000000  0.11500000  1.0
  Br  Br13  1  0.25000000  0.20000000  0.88500000  1.0
  Br  Br14  1  0.25000000  0.80000000  0.38500000  1.0
  Br  Br15  1  0.75000000  0.70000000  0.61500000  1.0
