# generated using pymatgen
data_K3NbO8
_symmetry_space_group_name_H-M   'P 1'
_cell_length_a   6.21092988
_cell_length_b   6.21092988
_cell_length_c   6.21092988
_cell_angle_alpha   101.25411010
_cell_angle_beta   113.72953058
_cell_angle_gamma   113.72953058
_symmetry_Int_Tables_number   1
_chemical_formula_structural   K3NbO8
_chemical_formula_sum   'K3 Nb1 O8'
_cell_volume   181.65015380
_cell_formula_units_Z   1
loop_
 _symmetry_equiv_pos_site_id
 _symmetry_equiv_pos_as_xyz
  1  'x, y, z'
loop_
 _atom_site_type_symbol
 _atom_site_label
 _atom_site_symmetry_multiplicity
 _atom_site_fract_x
 _atom_site_fract_y
 _atom_site_fract_z
 _atom_site_occupancy
  K  K0  1  0.50000000  0.75000000  0.25000000  1.0
  K  K1  1  0.50000000  0.25000000  0.75000000  1.0
  K  K2  1  0.00000000  0.50000000  0.50000000  1.0
  Nb  Nb3  1  0.00000000  0.00000000  0.00000000  1.0
  O  O4  1  0.00000000  0.16300000  0.72500000  1.0
  O  O5  1  0.56200000  0.83700000  0.83700000  1.0
  O  O6  1  0.43800000  0.27500000  0.27500000  1.0
  O  O7  1  0.00000000  0.72500000  0.16300000  1.0
  O  O8  1  0.00000000  0.65800000  0.94200000  1.0
  O  O9  1  0.28400000  0.34200000  0.34200000  1.0
  O  O10  1  0.71600000  0.05800000  0.05800000  1.0
  O  O11  1  0.00000000  0.94200000  0.65800000  1.0
