# generated using pymatgen
data_Cs3TaO8
_symmetry_space_group_name_H-M   'P 1'
_cell_length_a   6.67438001
_cell_length_b   6.67438001
_cell_length_c   6.67438001
_cell_angle_alpha   102.66833676
_cell_angle_beta   112.97605939
_cell_angle_gamma   112.97605939
_symmetry_Int_Tables_number   1
_chemical_formula_structural   Cs3TaO8
_chemical_formula_sum   'Cs3 Ta1 O8'
_cell_volume   226.50146032
_cell_formula_units_Z   1
loop_
 _symmetry_equiv_pos_site_id
 _symmetry_equiv_pos_as_xyz
  1  'x, y, z'
loop_
 _atom_site_type_symbol
 _atom_site_label
 _atom_site_symmetry_multiplicity
 _atom_site_fract_x
 _atom_site_fract_y
 _atom_site_fract_z
 _atom_site_occupancy
  Cs  Cs0  1  0.00000000  0.50000000  0.50000000  1.0
  Cs  Cs1  1  0.50000000  0.75000000  0.25000000  1.0
  Cs  Cs2  1  0.50000000  0.25000000  0.75000000  1.0
  Ta  Ta11  1  0.00000000  0.00000000  0.00000000  1.0
  O  O3  1  0.00000000  0.94200000  0.68000000  1.0
  O  O4  1  0.41600000  0.26900000  0.26900000  1.0
  O  O5  1  0.26200000  0.32000000  0.32000000  1.0
  O  O6  1  0.00000000  0.68000000  0.94200000  1.0
  O  O7  1  0.73800000  0.05800000  0.05800000  1.0
  O  O8  1  0.58400000  0.85300000  0.85300000  1.0
  O  O9  1  0.00000000  0.73100000  0.14700000  1.0
  O  O10  1  0.00000000  0.14700000  0.73100000  1.0
