# generated using pymatgen
data_RbNO2
_symmetry_space_group_name_H-M   'P 1'
_cell_length_a   5.77438433
_cell_length_b   5.77438433
_cell_length_c   7.64306000
_cell_angle_alpha   90.00000000
_cell_angle_beta   90.00000000
_cell_angle_gamma   120.00000000
_symmetry_Int_Tables_number   1
_chemical_formula_structural   RbNO2
_chemical_formula_sum   'Rb3 N3 O6'
_cell_volume   220.70352670
_cell_formula_units_Z   3
loop_
 _symmetry_equiv_pos_site_id
 _symmetry_equiv_pos_as_xyz
  1  'x, y, z'
loop_
 _atom_site_type_symbol
 _atom_site_label
 _atom_site_symmetry_multiplicity
 _atom_site_fract_x
 _atom_site_fract_y
 _atom_site_fract_z
 _atom_site_occupancy
  Rb  Rb0  1  0.00000000  0.70206000  0.66666667  1.0
  Rb  Rb1  1  0.29794000  0.29794000  0.00000000  1.0
  Rb  Rb2  1  0.70206000  0.00000000  0.33333333  1.0
  N  N3  1  0.00000000  0.68468900  0.16666667  1.0
  N  N4  1  0.31531100  0.31531100  0.50000000  1.0
  N  N5  1  0.68468900  0.00000000  0.83333333  1.0
  O  O6  1  0.11998300  0.62646300  0.28312700  1.0
  O  O7  1  0.50648000  0.88001700  0.94979367  1.0
  O  O8  1  0.37353700  0.49352000  0.61646033  1.0
  O  O9  1  0.49352000  0.37353700  0.38353967  1.0
  O  O10  1  0.62646300  0.11998300  0.71687300  1.0
  O  O11  1  0.88001700  0.50648000  0.05020633  1.0
