# generated using pymatgen
data_Cs2PbO3
_symmetry_space_group_name_H-M   'P 1'
_cell_length_a   6.04800000
_cell_length_b   6.88576519
_cell_length_c   6.88576519
_cell_angle_alpha   69.43188160
_cell_angle_beta   90.00000000
_cell_angle_gamma   90.00000000
_symmetry_Int_Tables_number   1
_chemical_formula_structural   Cs2PbO3
_chemical_formula_sum   'Cs4 Pb2 O6'
_cell_volume   268.47906623
_cell_formula_units_Z   2
loop_
 _symmetry_equiv_pos_site_id
 _symmetry_equiv_pos_as_xyz
  1  'x, y, z'
loop_
 _atom_site_type_symbol
 _atom_site_label
 _atom_site_symmetry_multiplicity
 _atom_site_fract_x
 _atom_site_fract_y
 _atom_site_fract_z
 _atom_site_occupancy
  Cs  Cs0  1  0.75000000  0.51720000  0.80880000  1.0
  Cs  Cs1  1  0.25000000  0.80880000  0.51720000  1.0
  Cs  Cs2  1  0.25000000  0.48280000  0.19120000  1.0
  Cs  Cs3  1  0.75000000  0.19120000  0.48280000  1.0
  Pb  Pb10  1  0.25000000  0.08880000  0.91120000  1.0
  Pb  Pb11  1  0.75000000  0.91120000  0.08880000  1.0
  O  O4  1  0.33300000  0.34600000  0.65400000  1.0
  O  O5  1  0.83300000  0.65400000  0.34600000  1.0
  O  O6  1  0.00000000  0.12500000  0.12500000  1.0
  O  O7  1  0.50000000  0.87500000  0.87500000  1.0
  O  O8  1  0.00000000  0.87500000  0.87500000  1.0
  O  O9  1  0.50000000  0.12500000  0.12500000  1.0
