# generated using pymatgen
data_Ga2S3
_symmetry_space_group_name_H-M   'P 1'
_cell_length_a   6.41100000
_cell_length_b   6.42651774
_cell_length_c   7.03800000
_cell_angle_alpha   116.69517829
_cell_angle_beta   90.00000000
_cell_angle_gamma   119.92015638
_symmetry_Int_Tables_number   1
_chemical_formula_structural   Ga2S3
_chemical_formula_sum   'Ga4 S6'
_cell_volume   214.92626315
_cell_formula_units_Z   2
loop_
 _symmetry_equiv_pos_site_id
 _symmetry_equiv_pos_as_xyz
  1  'x, y, z'
loop_
 _atom_site_type_symbol
 _atom_site_label
 _atom_site_symmetry_multiplicity
 _atom_site_fract_x
 _atom_site_fract_y
 _atom_site_fract_z
 _atom_site_occupancy
  Ga  Ga0  1  0.13900000  0.40800000  0.62000000  1.0
  Ga  Ga1  1  0.26900000  0.40800000  0.12000000  1.0
  Ga  Ga2  1  0.44300000  0.08600000  0.63000000  1.0
  Ga  Ga3  1  0.64300000  0.08600000  0.13000000  1.0
  S  S4  1  0.42900000  0.67800000  0.50400000  1.0
  S  S5  1  0.24900000  0.67800000  0.00400000  1.0
  S  S6  1  0.75700000  0.35400000  0.51200000  1.0
  S  S7  1  0.59700000  0.35400000  0.01200000  1.0
  S  S8  1  0.91700000  0.99600000  0.98300000  1.0
  S  S9  1  0.07900000  0.99600000  0.48300000  1.0
