# generated using pymatgen
data_K3TaO8
_symmetry_space_group_name_H-M   'P 1'
_cell_length_a   6.22840922
_cell_length_b   6.22840922
_cell_length_c   6.22840922
_cell_angle_alpha   100.93454500
_cell_angle_beta   113.90092035
_cell_angle_gamma   113.90092035
_symmetry_Int_Tables_number   1
_chemical_formula_structural   K3TaO8
_chemical_formula_sum   'K3 Ta1 O8'
_cell_volume   182.96818595
_cell_formula_units_Z   1
loop_
 _symmetry_equiv_pos_site_id
 _symmetry_equiv_pos_as_xyz
  1  'x, y, z'
loop_
 _atom_site_type_symbol
 _atom_site_label
 _atom_site_symmetry_multiplicity
 _atom_site_fract_x
 _atom_site_fract_y
 _atom_site_fract_z
 _atom_site_occupancy
  K  K0  1  0.50000000  0.75000000  0.25000000  1.0
  K  K1  1  0.50000000  0.25000000  0.75000000  1.0
  K  K2  1  0.00000000  0.50000000  0.50000000  1.0
  Ta  Ta11  1  0.00000000  0.00000000  0.00000000  1.0
  O  O3  1  0.00000000  0.67250000  0.95270000  1.0
  O  O4  1  0.28020000  0.32750000  0.32750000  1.0
  O  O5  1  0.71980000  0.04730000  0.04730000  1.0
  O  O6  1  0.00000000  0.95270000  0.67250000  1.0
  O  O7  1  0.00000000  0.76900000  0.19500000  1.0
  O  O8  1  0.42600000  0.23100000  0.23100000  1.0
  O  O9  1  0.57400000  0.80500000  0.80500000  1.0
  O  O10  1  0.00000000  0.19500000  0.76900000  1.0
