# generated using pymatgen
data_Li2SnTeO6
_symmetry_space_group_name_H-M   'P 1'
_cell_length_a   4.92700000
_cell_length_b   5.19200000
_cell_length_c   8.51300000
_cell_angle_alpha   90.00000000
_cell_angle_beta   90.00000000
_cell_angle_gamma   90.00000000
_symmetry_Int_Tables_number   1
_chemical_formula_structural   Li2SnTeO6
_chemical_formula_sum   'Li4 Sn2 Te2 O12'
_cell_volume   217.77091679
_cell_formula_units_Z   2
loop_
 _symmetry_equiv_pos_site_id
 _symmetry_equiv_pos_as_xyz
  1  'x, y, z'
loop_
 _atom_site_type_symbol
 _atom_site_label
 _atom_site_symmetry_multiplicity
 _atom_site_fract_x
 _atom_site_fract_y
 _atom_site_fract_z
 _atom_site_occupancy
  Li  Li0  1  0.00000000  0.00000000  0.27400000  1.0
  Li  Li1  1  0.50000000  0.50000000  0.77400000  1.0
  Li  Li2  1  0.50000000  0.00000000  0.22000000  1.0
  Li  Li3  1  0.00000000  0.50000000  0.72000000  1.0
  Sn  Sn4  1  0.50000000  0.00000000  0.59730000  1.0
  Sn  Sn5  1  0.00000000  0.50000000  0.09730000  1.0
  Te  Te6  1  0.00000000  0.00000000  0.89860000  1.0
  Te  Te7  1  0.50000000  0.50000000  0.39860000  1.0
  O  O8  1  0.79200000  0.83600000  0.07200000  1.0
  O  O9  1  0.70800000  0.33600000  0.57200000  1.0
  O  O10  1  0.29200000  0.66400000  0.57200000  1.0
  O  O11  1  0.75200000  0.32000000  0.24700000  1.0
  O  O12  1  0.74800000  0.82000000  0.74700000  1.0
  O  O13  1  0.25200000  0.18000000  0.74700000  1.0
  O  O14  1  0.79200000  0.33700000  0.92100000  1.0
  O  O15  1  0.24800000  0.68000000  0.24700000  1.0
  O  O16  1  0.29200000  0.16300000  0.42100000  1.0
  O  O17  1  0.20800000  0.66300000  0.92100000  1.0
  O  O18  1  0.70800000  0.83700000  0.42100000  1.0
  O  O19  1  0.20800000  0.16400000  0.07200000  1.0
