# generated using pymatgen
data_AsCl3
_symmetry_space_group_name_H-M   'P 1'
_cell_length_a   4.28900000
_cell_length_b   9.46600000
_cell_length_c   11.33500000
_cell_angle_alpha   90.00000000
_cell_angle_beta   90.00000000
_cell_angle_gamma   90.00000000
_symmetry_Int_Tables_number   1
_chemical_formula_structural   AsCl3
_chemical_formula_sum   'As4 Cl12'
_cell_volume   460.19730479
_cell_formula_units_Z   4
loop_
 _symmetry_equiv_pos_site_id
 _symmetry_equiv_pos_as_xyz
  1  'x, y, z'
loop_
 _atom_site_type_symbol
 _atom_site_label
 _atom_site_symmetry_multiplicity
 _atom_site_fract_x
 _atom_site_fract_y
 _atom_site_fract_z
 _atom_site_occupancy
  As  As0  1  0.01090000  0.69900000  0.78790000  1.0
  As  As1  1  0.51090000  0.80100000  0.21210000  1.0
  As  As2  1  0.98910000  0.19900000  0.71210000  1.0
  As  As3  1  0.48910000  0.30100000  0.28790000  1.0
  Cl  Cl4  1  0.25100000  0.52180000  0.86760000  1.0
  Cl  Cl5  1  0.75100000  0.97820000  0.13240000  1.0
  Cl  Cl6  1  0.74900000  0.02180000  0.63240000  1.0
  Cl  Cl7  1  0.24900000  0.47820000  0.36760000  1.0
  Cl  Cl8  1  0.23210000  0.29660000  0.12360000  1.0
  Cl  Cl9  1  0.73210000  0.20340000  0.87640000  1.0
  Cl  Cl10  1  0.76790000  0.79660000  0.37640000  1.0
  Cl  Cl11  1  0.26790000  0.70340000  0.62360000  1.0
  Cl  Cl12  1  0.23800000  0.13470000  0.37920000  1.0
  Cl  Cl13  1  0.73800000  0.36530000  0.62080000  1.0
  Cl  Cl14  1  0.76200000  0.63470000  0.12080000  1.0
  Cl  Cl15  1  0.26200000  0.86530000  0.87920000  1.0
