# generated using pymatgen
data_TeF4
_symmetry_space_group_name_H-M   'P 1'
_cell_length_a   5.36000000
_cell_length_b   6.22000000
_cell_length_c   9.64000000
_cell_angle_alpha   90.00000000
_cell_angle_beta   90.00000000
_cell_angle_gamma   90.00000000
_symmetry_Int_Tables_number   1
_chemical_formula_structural   TeF4
_chemical_formula_sum   'Te4 F16'
_cell_volume   321.38988800
_cell_formula_units_Z   4
loop_
 _symmetry_equiv_pos_site_id
 _symmetry_equiv_pos_as_xyz
  1  'x, y, z'
loop_
 _atom_site_type_symbol
 _atom_site_label
 _atom_site_symmetry_multiplicity
 _atom_site_fract_x
 _atom_site_fract_y
 _atom_site_fract_z
 _atom_site_occupancy
  Te  Te0  1  0.15270000  0.99530000  0.62400000  1.0
  Te  Te1  1  0.34730000  0.00470000  0.12400000  1.0
  Te  Te2  1  0.65270000  0.50470000  0.37600000  1.0
  Te  Te3  1  0.84730000  0.49530000  0.87600000  1.0
  F  F4  1  0.69690000  0.24680000  0.94750000  1.0
  F  F5  1  0.06810000  0.85510000  0.04510000  1.0
  F  F6  1  0.56810000  0.64490000  0.95490000  1.0
  F  F7  1  0.44380000  0.71110000  0.25200000  1.0
  F  F8  1  0.15620000  0.03290000  0.27620000  1.0
  F  F9  1  0.34380000  0.96710000  0.77620000  1.0
  F  F10  1  0.65620000  0.46710000  0.72380000  1.0
  F  F11  1  0.43190000  0.14490000  0.54510000  1.0
  F  F12  1  0.05620000  0.28890000  0.75200000  1.0
  F  F13  1  0.84380000  0.53290000  0.22380000  1.0
  F  F14  1  0.93190000  0.35510000  0.45490000  1.0
  F  F15  1  0.30310000  0.74680000  0.55250000  1.0
  F  F16  1  0.55620000  0.21110000  0.24800000  1.0
  F  F17  1  0.80310000  0.75320000  0.44750000  1.0
  F  F18  1  0.94380000  0.78890000  0.74800000  1.0
  F  F19  1  0.19690000  0.25320000  0.05250000  1.0
