# generated using pymatgen
data_NbCl3O
_symmetry_space_group_name_H-M   'P 1'
_cell_length_a   10.89590000
_cell_length_b   10.89590000
_cell_length_c   3.94790000
_cell_angle_alpha   90.00000000
_cell_angle_beta   90.00000000
_cell_angle_gamma   90.00000000
_symmetry_Int_Tables_number   1
_chemical_formula_structural   NbCl3O
_chemical_formula_sum   'Nb4 Cl12 O4'
_cell_volume   468.69720206
_cell_formula_units_Z   4
loop_
 _symmetry_equiv_pos_site_id
 _symmetry_equiv_pos_as_xyz
  1  'x, y, z'
loop_
 _atom_site_type_symbol
 _atom_site_label
 _atom_site_symmetry_multiplicity
 _atom_site_fract_x
 _atom_site_fract_y
 _atom_site_fract_z
 _atom_site_occupancy
  Nb  Nb0  1  0.87306000  0.62694000  0.69253000  1.0
  Nb  Nb1  1  0.62694000  0.12694000  0.30747000  1.0
  Nb  Nb2  1  0.12694000  0.37306000  0.69253000  1.0
  Nb  Nb3  1  0.37306000  0.87306000  0.30747000  1.0
  Cl  Cl4  1  0.39585000  0.10415000  0.23500000  1.0
  Cl  Cl5  1  0.89480000  0.83329000  0.75430000  1.0
  Cl  Cl6  1  0.10520000  0.16671000  0.75430000  1.0
  Cl  Cl7  1  0.89585000  0.39585000  0.76500000  1.0
  Cl  Cl8  1  0.60415000  0.89585000  0.23500000  1.0
  Cl  Cl9  1  0.66666667  0.60520000  0.75430000  1.0
  Cl  Cl10  1  0.33329000  0.39480000  0.75430000  1.0
  Cl  Cl11  1  0.16671000  0.89480000  0.24570000  1.0
  Cl  Cl12  1  0.10415000  0.60415000  0.76500000  1.0
  Cl  Cl13  1  0.39480000  0.66666667  0.24570000  1.0
  Cl  Cl14  1  0.60520000  0.33329000  0.24570000  1.0
  Cl  Cl15  1  0.83329000  0.10520000  0.24570000  1.0
  O  O16  1  0.61650000  0.11650000  0.75100000  1.0
  O  O17  1  0.88350000  0.61650000  0.24900000  1.0
  O  O18  1  0.11650000  0.38350000  0.24900000  1.0
  O  O19  1  0.38350000  0.88350000  0.75100000  1.0
