# generated using pymatgen
data_RbSe
_symmetry_space_group_name_H-M   'P 1'
_cell_length_a   9.30500000
_cell_length_b   9.30500000
_cell_length_c   6.20200000
_cell_angle_alpha   90.00000000
_cell_angle_beta   90.00000000
_cell_angle_gamma   120.00000000
_symmetry_Int_Tables_number   1
_chemical_formula_structural   RbSe
_chemical_formula_sum   'Rb6 Se6'
_cell_volume   465.04518115
_cell_formula_units_Z   6
loop_
 _symmetry_equiv_pos_site_id
 _symmetry_equiv_pos_as_xyz
  1  'x, y, z'
loop_
 _atom_site_type_symbol
 _atom_site_label
 _atom_site_symmetry_multiplicity
 _atom_site_fract_x
 _atom_site_fract_y
 _atom_site_fract_z
 _atom_site_occupancy
  Rb  Rb0  1  0.00000000  0.28500000  0.50000000  1.0
  Rb  Rb1  1  0.71500000  0.71500000  0.50000000  1.0
  Rb  Rb2  1  0.28500000  0.00000000  0.50000000  1.0
  Rb  Rb3  1  -0.00000000  0.66500001  0.00000000  1.0
  Rb  Rb4  1  0.33499999  0.33499999  0.00000000  1.0
  Rb  Rb5  1  0.66500001  0.00000000  -0.00000000  1.0
  Se  Se6  1  0.66666667  0.33333333  0.30100000  1.0
  Se  Se7  1  0.66666667  0.33333333  0.69900000  1.0
  Se  Se8  1  0.33333333  0.66666667  0.69900000  1.0
  Se  Se9  1  0.33333333  0.66666667  0.30100000  1.0
  Se  Se10  1  0.00000000  0.00000000  0.80100000  1.0
  Se  Se11  1  -0.00000000  0.00000000  0.19900000  1.0
