# generated using pymatgen
data_KS
_symmetry_space_group_name_H-M   'P 1'
_cell_length_a   8.49000000
_cell_length_b   8.49000000
_cell_length_c   5.84000000
_cell_angle_alpha   90.00000000
_cell_angle_beta   90.00000000
_cell_angle_gamma   120.00000000
_symmetry_Int_Tables_number   1
_chemical_formula_structural   KS
_chemical_formula_sum   'K6 S6'
_cell_volume   364.55147461
_cell_formula_units_Z   6
loop_
 _symmetry_equiv_pos_site_id
 _symmetry_equiv_pos_as_xyz
  1  'x, y, z'
loop_
 _atom_site_type_symbol
 _atom_site_label
 _atom_site_symmetry_multiplicity
 _atom_site_fract_x
 _atom_site_fract_y
 _atom_site_fract_z
 _atom_site_occupancy
  K  K0  1  -0.00000000  0.63000001  0.50000000  1.0
  K  K1  1  0.36999999  0.36999999  0.50000000  1.0
  K  K2  1  0.63000001  0.00000000  0.50000000  1.0
  K  K3  1  0.00000000  0.30000001  0.00000000  1.0
  K  K4  1  0.69999999  0.69999999  0.00000000  1.0
  K  K5  1  0.30000001  0.00000000  0.00000000  1.0
  S  S6  1  0.66666667  0.33333333  0.18000000  1.0
  S  S7  1  0.66666667  0.33333333  0.82000000  1.0
  S  S8  1  0.33333333  0.66666667  0.82000000  1.0
  S  S9  1  0.33333333  0.66666667  0.18000000  1.0
  S  S10  1  0.00000000  0.00000000  0.68000000  1.0
  S  S11  1  0.00000000  0.00000000  0.32000000  1.0
