# generated using pymatgen
data_IF7
_symmetry_space_group_name_H-M   'P 1'
_cell_length_a   5.39389701
_cell_length_b   5.39389701
_cell_length_c   8.74000000
_cell_angle_alpha   90.00000000
_cell_angle_beta   90.00000000
_cell_angle_gamma   110.61641103
_symmetry_Int_Tables_number   1
_chemical_formula_structural   IF7
_chemical_formula_sum   'I2 F14'
_cell_volume   237.99806572
_cell_formula_units_Z   2
loop_
 _symmetry_equiv_pos_site_id
 _symmetry_equiv_pos_as_xyz
  1  'x, y, z'
loop_
 _atom_site_type_symbol
 _atom_site_label
 _atom_site_symmetry_multiplicity
 _atom_site_fract_x
 _atom_site_fract_y
 _atom_site_fract_z
 _atom_site_occupancy
  I  I14  1  0.50000000  0.50000000  0.50000000  1.0
  I  I15  1  0.00000000  0.00000000  0.00000000  1.0
  F  F0  1  0.41210000  0.64990000  0.33050000  1.0
  F  F1  1  0.64990000  0.41210000  0.66950000  1.0
  F  F2  1  0.27770000  0.27770000  0.00000000  1.0
  F  F3  1  0.77770000  0.77770000  0.50000000  1.0
  F  F4  1  0.66650000  0.86130000  0.91380000  1.0
  F  F5  1  0.86130000  0.66650000  0.08620000  1.0
  F  F6  1  0.16650000  0.36130000  0.58620000  1.0
  F  F7  1  0.36130000  0.16650000  0.41380000  1.0
  F  F8  1  0.90190000  0.21510000  0.87650000  1.0
  F  F9  1  0.21510000  0.90190000  0.12350000  1.0
  F  F10  1  0.40190000  0.71510000  0.62350000  1.0
  F  F11  1  0.71510000  0.40190000  0.37650000  1.0
  F  F12  1  0.14990000  0.91210000  0.83050000  1.0
  F  F13  1  0.91210000  0.14990000  0.16950000  1.0
