# generated using pymatgen
data_Al2Se3
_symmetry_space_group_name_H-M   'P 1'
_cell_length_a   6.73000000
_cell_length_b   6.74009087
_cell_length_c   7.32000000
_cell_angle_alpha   116.58685919
_cell_angle_beta   90.00000000
_cell_angle_gamma   119.95048729
_symmetry_Int_Tables_number   1
_chemical_formula_structural   Al2Se3
_chemical_formula_sum   'Al4 Se6'
_cell_volume   246.34754680
_cell_formula_units_Z   2
loop_
 _symmetry_equiv_pos_site_id
 _symmetry_equiv_pos_as_xyz
  1  'x, y, z'
loop_
 _atom_site_type_symbol
 _atom_site_label
 _atom_site_symmetry_multiplicity
 _atom_site_fract_x
 _atom_site_fract_y
 _atom_site_fract_z
 _atom_site_occupancy
  Al  Al0  1  0.62490000  0.08320000  0.12500000  1.0
  Al  Al1  1  0.45830000  0.08320000  0.62500000  1.0
  Al  Al2  1  0.29160000  0.41660000  0.12500000  1.0
  Al  Al3  1  0.12500000  0.41660000  0.62500000  1.0
  Se  Se4  1  0.91670000  0.00000000  0.00000000  1.0
  Se  Se5  1  0.08330000  0.00000000  0.50000000  1.0
  Se  Se6  1  0.58340000  0.33340000  0.00000000  1.0
  Se  Se7  1  0.75000000  0.33340000  0.50000000  1.0
  Se  Se8  1  0.25000000  0.66666667  0.00000000  1.0
  Se  Se9  1  0.41660000  0.66666667  0.50000000  1.0
