# generated using pymatgen
data_Cs2TeO3
_symmetry_space_group_name_H-M   'P 1'
_cell_length_a   6.78999979
_cell_length_b   6.78999979
_cell_length_c   7.97200000
_cell_angle_alpha   90.00000000
_cell_angle_beta   90.00000000
_cell_angle_gamma   120.00000000
_symmetry_Int_Tables_number   1
_chemical_formula_structural   Cs2TeO3
_chemical_formula_sum   'Cs4 Te2 O6'
_cell_volume   318.30058985
_cell_formula_units_Z   2
loop_
 _symmetry_equiv_pos_site_id
 _symmetry_equiv_pos_as_xyz
  1  'x, y, z'
loop_
 _atom_site_type_symbol
 _atom_site_label
 _atom_site_symmetry_multiplicity
 _atom_site_fract_x
 _atom_site_fract_y
 _atom_site_fract_z
 _atom_site_occupancy
  Cs  Cs0  1  0.00000000  0.00000000  0.00000000  1.0
  Cs  Cs1  1  0.66666667  0.33333333  0.64110000  1.0
  Cs  Cs2  1  0.33333333  0.66666667  0.35890000  1.0
  Cs  Cs3  1  0.00000000  0.00000000  0.50000000  1.0
  Te  Te4  1  0.66666667  0.33333333  0.16440000  1.0
  Te  Te5  1  0.33333333  0.66666667  0.83560000  1.0
  O  O6  1  0.16300100  0.77400100  0.73100000  1.0
  O  O7  1  0.38900000  0.22599900  0.26900000  1.0
  O  O8  1  0.77400100  0.16300100  0.26900000  1.0
  O  O9  1  0.83699900  0.61100000  0.26900000  1.0
  O  O10  1  0.22599900  0.38900000  0.73100000  1.0
  O  O11  1  0.61100000  0.83699900  0.73100000  1.0
