# generated using pymatgen
data_Na3VO4
_symmetry_space_group_name_H-M   'P 1'
_cell_length_a   7.17323363
_cell_length_b   6.14164655
_cell_length_c   5.59052324
_cell_angle_alpha   90.00000000
_cell_angle_beta   90.00000000
_cell_angle_gamma   90.00000000
_symmetry_Int_Tables_number   1
_chemical_formula_structural   Na3VO4
_chemical_formula_sum   'Na6 V2 O8'
_cell_volume   246.29310415
_cell_formula_units_Z   2
loop_
 _symmetry_equiv_pos_site_id
 _symmetry_equiv_pos_as_xyz
  1  'x, y, z'
loop_
 _atom_site_type_symbol
 _atom_site_label
 _atom_site_symmetry_multiplicity
 _atom_site_fract_x
 _atom_site_fract_y
 _atom_site_fract_z
 _atom_site_occupancy
  Na  Na0  1  0.00000000  0.84111757  0.51264890  1.0
  Na  Na1  1  0.24609066  0.67340727  0.01123940  1.0
  Na  Na2  1  0.25390934  0.32659273  0.51123940  1.0
  Na  Na3  1  0.50000000  0.15888243  0.01264890  1.0
  Na  Na4  1  0.74609066  0.32659273  0.51123940  1.0
  Na  Na5  1  0.75390934  0.67340727  0.01123940  1.0
  V  V6  1  0.00000000  0.17302751  0.99858722  1.0
  V  V7  1  0.50000000  0.82697249  0.49858722  1.0
  O  O8  1  0.00000000  0.90356339  0.09558973  1.0
  O  O9  1  0.00000000  0.17746758  0.68995770  1.0
  O  O10  1  0.20039388  0.30678390  0.09800426  1.0
  O  O11  1  0.29960612  0.69321610  0.59800426  1.0
  O  O12  1  0.50000000  0.82253242  0.18995770  1.0
  O  O13  1  0.50000000  0.09643661  0.59558973  1.0
  O  O14  1  0.70039388  0.69321610  0.59800426  1.0
  O  O15  1  0.79960612  0.30678390  0.09800426  1.0
