# generated using pymatgen
data_SeF4
_symmetry_space_group_name_H-M   'P 1'
_cell_length_a   5.16900000
_cell_length_b   5.54800000
_cell_length_c   11.34500000
_cell_angle_alpha   90.00000000
_cell_angle_beta   90.00000000
_cell_angle_gamma   90.00000000
_symmetry_Int_Tables_number   1
_chemical_formula_structural   SeF4
_chemical_formula_sum   'Se4 F16'
_cell_volume   325.34750814
_cell_formula_units_Z   4
loop_
 _symmetry_equiv_pos_site_id
 _symmetry_equiv_pos_as_xyz
  1  'x, y, z'
loop_
 _atom_site_type_symbol
 _atom_site_label
 _atom_site_symmetry_multiplicity
 _atom_site_fract_x
 _atom_site_fract_y
 _atom_site_fract_z
 _atom_site_occupancy
  Se  Se0  1  0.33970000  0.90510000  0.12440000  1.0
  Se  Se1  1  0.83970000  0.59490000  0.87560000  1.0
  Se  Se2  1  0.66030000  0.40510000  0.37560000  1.0
  Se  Se3  1  0.16030000  0.09490000  0.62440000  1.0
  F  F4  1  0.15310000  0.66730000  0.05740000  1.0
  F  F5  1  0.65310000  0.83270000  0.94260000  1.0
  F  F6  1  0.84690000  0.16730000  0.44260000  1.0
  F  F7  1  0.34690000  0.33270000  0.55740000  1.0
  F  F8  1  0.28180000  0.91070000  0.52080000  1.0
  F  F9  1  0.78180000  0.58930000  0.47920000  1.0
  F  F10  1  0.71820000  0.41070000  0.97920000  1.0
  F  F11  1  0.21820000  0.08930000  0.02080000  1.0
  F  F12  1  0.40050000  0.06370000  0.72160000  1.0
  F  F13  1  0.90050000  0.43630000  0.27840000  1.0
  F  F14  1  0.59950000  0.56370000  0.77840000  1.0
  F  F15  1  0.09950000  0.93630000  0.22160000  1.0
  F  F16  1  0.02960000  0.82690000  0.68950000  1.0
  F  F17  1  0.52960000  0.67310000  0.31050000  1.0
  F  F18  1  0.97040000  0.32690000  0.81050000  1.0
  F  F19  1  0.47040000  0.17310000  0.18950000  1.0
