# generated using pymatgen
data_Li5BiO5
_symmetry_space_group_name_H-M   'P 1'
_cell_length_a   4.14800000
_cell_length_b   5.39646180
_cell_length_c   5.94090000
_cell_angle_alpha   107.93981230
_cell_angle_beta   90.00000000
_cell_angle_gamma   112.60189723
_symmetry_Int_Tables_number   1
_chemical_formula_structural   Li5BiO5
_chemical_formula_sum   'Li5 Bi1 O5'
_cell_volume   115.73590146
_cell_formula_units_Z   1
loop_
 _symmetry_equiv_pos_site_id
 _symmetry_equiv_pos_as_xyz
  1  'x, y, z'
loop_
 _atom_site_type_symbol
 _atom_site_label
 _atom_site_symmetry_multiplicity
 _atom_site_fract_x
 _atom_site_fract_y
 _atom_site_fract_z
 _atom_site_occupancy
  Li  Li1  1  0.71700000  0.43400000  0.34500000  1.0
  Li  Li2  1  0.98900000  0.97800000  0.54300000  1.0
  Li  Li3  1  0.29300000  0.58600000  0.13800000  1.0
  Li  Li4  1  0.67000000  0.34000000  0.85200000  1.0
  Li  Li5  1  0.28700000  0.57400000  0.66300000  1.0
  Bi  Bi0  1  0.00000000  0.00000000  0.00000000  1.0
  O  O6  1  0.84900000  0.69800000  0.19100000  1.0
  O  O7  1  0.50100000  0.00200000  0.07100000  1.0
  O  O8  1  0.15400000  0.30800000  0.33600000  1.0
  O  O9  1  0.83300000  0.66600000  0.69300000  1.0
  O  O10  1  0.13900000  0.27800000  0.83800000  1.0
