# generated using pymatgen
data_ClO3
_symmetry_space_group_name_H-M   'P 1'
_cell_length_a   5.12666407
_cell_length_b   5.12666407
_cell_length_c   9.78500000
_cell_angle_alpha   95.70643401
_cell_angle_beta   95.70643401
_cell_angle_gamma   114.28444867
_symmetry_Int_Tables_number   1
_chemical_formula_structural   ClO3
_chemical_formula_sum   'Cl4 O12'
_cell_volume   230.44958326
_cell_formula_units_Z   4
loop_
 _symmetry_equiv_pos_site_id
 _symmetry_equiv_pos_as_xyz
  1  'x, y, z'
loop_
 _atom_site_type_symbol
 _atom_site_label
 _atom_site_symmetry_multiplicity
 _atom_site_fract_x
 _atom_site_fract_y
 _atom_site_fract_z
 _atom_site_occupancy
  Cl  Cl0  1  0.33020000  0.19600000  0.86030000  1.0
  Cl  Cl1  1  0.19600000  0.33020000  0.36030000  1.0
  Cl  Cl2  1  0.68700000  0.82360000  0.62120000  1.0
  Cl  Cl3  1  0.82360000  0.68700000  0.12120000  1.0
  O  O4  1  0.55160000  0.43140000  0.81420000  1.0
  O  O5  1  0.43140000  0.55160000  0.31420000  1.0
  O  O6  1  0.04820000  0.18880000  0.81610000  1.0
  O  O7  1  0.18880000  0.04820000  0.31610000  1.0
  O  O8  1  0.03180000  0.63500000  0.05410000  1.0
  O  O9  1  0.63500000  0.03180000  0.55410000  1.0
  O  O10  1  0.63900000  0.80080000  0.07180000  1.0
  O  O11  1  0.80080000  0.63900000  0.57180000  1.0
  O  O12  1  0.24160000  0.38140000  0.51210000  1.0
  O  O13  1  0.38140000  0.24160000  0.01210000  1.0
  O  O14  1  0.92720000  0.33260000  0.30860000  1.0
  O  O15  1  0.33260000  0.92720000  0.80860000  1.0
