# generated using pymatgen
data_GaN5O14
_symmetry_space_group_name_H-M   'P 1'
_cell_length_a   5.93760040
_cell_length_b   7.18625003
_cell_length_c   7.23002991
_cell_angle_alpha   77.04052916
_cell_angle_beta   65.75616558
_cell_angle_gamma   65.59887516
_symmetry_Int_Tables_number   1
_chemical_formula_structural   GaN5O14
_chemical_formula_sum   'Ga1 N5 O14'
_cell_volume   255.60999958
_cell_formula_units_Z   1
loop_
 _symmetry_equiv_pos_site_id
 _symmetry_equiv_pos_as_xyz
  1  'x, y, z'
loop_
 _atom_site_type_symbol
 _atom_site_label
 _atom_site_symmetry_multiplicity
 _atom_site_fract_x
 _atom_site_fract_y
 _atom_site_fract_z
 _atom_site_occupancy
  Ga  Ga0  1  0.00000000  0.00000000  0.00000000  1.0
  N  N1  1  0.86690000  0.99180000  0.68020000  1.0
  N  N2  1  0.53890000  0.00820000  0.31980000  1.0
  N  N3  1  0.14300000  0.29740000  0.98120000  1.0
  N  N4  1  0.42160000  0.70260000  0.01880000  1.0
  N  N5  1  0.16050000  0.50000000  0.50000000  1.0
  O  O6  1  0.98250000  0.86960000  0.80920000  1.0
  O  O7  1  0.66130000  0.13040000  0.19080000  1.0
  O  O8  1  0.73950000  0.17230000  0.71330000  1.0
  O  O9  1  0.62510000  0.82770000  0.28670000  1.0
  O  O10  1  0.89750000  0.90930000  0.53710000  1.0
  O  O11  1  0.34390000  0.09070000  0.46290000  1.0
  O  O12  1  0.08500000  0.23600000  0.85220000  1.0
  O  O13  1  0.17320000  0.76400000  0.14780000  1.0
  O  O14  1  0.12790000  0.18480000  0.14180000  1.0
  O  O15  1  0.45450000  0.81520000  0.85820000  1.0
  O  O16  1  0.20410000  0.44680000  0.93340000  1.0
  O  O17  1  0.58430000  0.55320000  0.06660000  1.0
  O  O18  1  0.34740000  0.50000000  0.50000000  1.0
  O  O19  1  0.97110000  0.50000000  0.50000000  1.0
