# generated using pymatgen
data_Li2Si2O5
_symmetry_space_group_name_H-M   'P 1'
_cell_length_a   4.77300000
_cell_length_b   5.80700000
_cell_length_c   7.84786552
_cell_angle_alpha   111.71396509
_cell_angle_beta   90.00000000
_cell_angle_gamma   90.00000000
_symmetry_Int_Tables_number   1
_chemical_formula_structural   Li2Si2O5
_chemical_formula_sum   'Li4 Si4 O10'
_cell_volume   202.08326896
_cell_formula_units_Z   2
loop_
 _symmetry_equiv_pos_site_id
 _symmetry_equiv_pos_as_xyz
  1  'x, y, z'
loop_
 _atom_site_type_symbol
 _atom_site_label
 _atom_site_symmetry_multiplicity
 _atom_site_fract_x
 _atom_site_fract_y
 _atom_site_fract_z
 _atom_site_occupancy
  Li  Li0  1  0.99000000  0.20980000  0.11640000  1.0
  Li  Li1  1  0.99000000  0.79020000  0.88360000  1.0
  Li  Li2  1  0.49000000  0.90660000  0.11640000  1.0
  Li  Li3  1  0.49000000  0.09340000  0.88360000  1.0
  Si  Si14  1  0.99243000  0.80364000  0.29688000  1.0
  Si  Si15  1  0.99243000  0.19636000  0.70312000  1.0
  Si  Si16  1  0.49243000  0.49324000  0.29688000  1.0
  Si  Si17  1  0.49243000  0.50676000  0.70312000  1.0
  O  O4  1  0.40220000  0.75750000  0.85560000  1.0
  O  O5  1  0.40220000  0.24250000  0.14440000  1.0
  O  O6  1  0.90220000  0.09810000  0.85560000  1.0
  O  O7  1  0.90220000  0.90190000  0.14440000  1.0
  O  O8  1  0.32840000  0.26990000  0.72460000  1.0
  O  O9  1  0.32840000  0.73010000  0.27540000  1.0
  O  O10  1  0.82840000  0.45470000  0.72460000  1.0
  O  O11  1  0.82840000  0.54530000  0.27540000  1.0
  O  O12  1  0.43610000  0.50000000  0.50000000  1.0
  O  O13  1  0.93610000  0.00000000  0.50000000  1.0
