# generated using pymatgen
data_H4NF
_symmetry_space_group_name_H-M   'P 1'
_cell_length_a   4.43900000
_cell_length_b   4.43900000
_cell_length_c   7.16500000
_cell_angle_alpha   90.00000000
_cell_angle_beta   90.00000000
_cell_angle_gamma   120.00000000
_symmetry_Int_Tables_number   1
_chemical_formula_structural   H4NF
_chemical_formula_sum   'H8 N2 F2'
_cell_volume   122.26921290
_cell_formula_units_Z   2
loop_
 _symmetry_equiv_pos_site_id
 _symmetry_equiv_pos_as_xyz
  1  'x, y, z'
loop_
 _atom_site_type_symbol
 _atom_site_label
 _atom_site_symmetry_multiplicity
 _atom_site_fract_x
 _atom_site_fract_y
 _atom_site_fract_z
 _atom_site_occupancy
  H  H0  1  0.55899999  0.11799999  0.91600000  1.0
  H  H1  1  0.55899999  0.44100001  0.91600000  1.0
  H  H2  1  0.33333333  0.66666667  0.24400000  1.0
  H  H3  1  0.66666667  0.33333333  0.74400000  1.0
  H  H4  1  0.44100001  0.55899999  0.41600000  1.0
  H  H5  1  0.88200001  0.44100001  0.91600000  1.0
  H  H6  1  0.44100001  0.88200001  0.41600000  1.0
  H  H7  1  0.11799999  0.55899999  0.41600000  1.0
  N  N8  1  0.33333333  0.66666667  0.37820000  1.0
  N  N9  1  0.66666667  0.33333333  0.87820000  1.0
  F  F10  1  0.33333333  0.66666667  0.00000000  1.0
  F  F11  1  0.66666667  0.33333333  0.50000000  1.0
