# generated using pymatgen
data_Rb4SnO3
_symmetry_space_group_name_H-M   'P 1'
_cell_length_a   6.83176774
_cell_length_b   6.91149260
_cell_length_c   10.53076046
_cell_angle_alpha   83.34093780
_cell_angle_beta   71.07246762
_cell_angle_gamma   69.05361847
_symmetry_Int_Tables_number   1
_chemical_formula_structural   Rb4SnO3
_chemical_formula_sum   'Rb8 Sn2 O6'
_cell_volume   439.26946891
_cell_formula_units_Z   2
loop_
 _symmetry_equiv_pos_site_id
 _symmetry_equiv_pos_as_xyz
  1  'x, y, z'
loop_
 _atom_site_type_symbol
 _atom_site_label
 _atom_site_symmetry_multiplicity
 _atom_site_fract_x
 _atom_site_fract_y
 _atom_site_fract_z
 _atom_site_occupancy
  Rb  Rb6  1  0.31290700  0.20536400  0.30496400  1.0
  Rb  Rb7  1  0.52661600  0.25432300  0.92406500  1.0
  Rb  Rb8  1  0.94752300  0.23795800  0.09171200  1.0
  Rb  Rb9  1  0.75428000  0.23509200  0.50699400  1.0
  Rb  Rb10  1  0.61787100  0.70536400  0.69503600  1.0
  Rb  Rb11  1  0.45068100  0.75432300  0.07593500  1.0
  Rb  Rb12  1  0.03923500  0.73795800  0.90828800  1.0
  Rb  Rb13  1  0.26127400  0.73509200  0.49300600  1.0
  Sn  Sn14  1  0.16272500  0.25456200  0.72476100  1.0
  Sn  Sn15  1  0.88748600  0.75456200  0.27523900  1.0
  O  O0  1  0.29498800  0.03596500  0.85544200  1.0
  O  O1  1  0.35527900  0.44314200  0.69240400  1.0
  O  O2  1  0.15043000  0.53596500  0.14455800  1.0
  O  O3  1  0.04768300  0.94314200  0.30759600  1.0
  O  O4  1  0.86496000  0.44090700  0.84947500  1.0
  O  O5  1  0.71443500  0.94090700  0.15052500  1.0
