# generated using pymatgen
data_GeF2
_symmetry_space_group_name_H-M   'P 1'
_cell_length_a   4.68200000
_cell_length_b   5.15800000
_cell_length_c   8.31200000
_cell_angle_alpha   90.00000000
_cell_angle_beta   90.00000000
_cell_angle_gamma   90.00000000
_symmetry_Int_Tables_number   1
_chemical_formula_structural   GeF2
_chemical_formula_sum   'Ge4 F8'
_cell_volume   200.73277187
_cell_formula_units_Z   4
loop_
 _symmetry_equiv_pos_site_id
 _symmetry_equiv_pos_as_xyz
  1  'x, y, z'
loop_
 _atom_site_type_symbol
 _atom_site_label
 _atom_site_symmetry_multiplicity
 _atom_site_fract_x
 _atom_site_fract_y
 _atom_site_fract_z
 _atom_site_occupancy
  Ge  Ge0  1  0.26600000  0.99170000  0.63110000  1.0
  Ge  Ge1  1  0.76600000  0.50830000  0.36890000  1.0
  Ge  Ge2  1  0.73400000  0.49170000  0.86890000  1.0
  Ge  Ge3  1  0.23400000  0.00830000  0.13110000  1.0
  F  F4  1  0.43280000  0.75380000  0.77920000  1.0
  F  F5  1  0.93280000  0.74620000  0.22080000  1.0
  F  F6  1  0.56720000  0.25380000  0.72080000  1.0
  F  F7  1  0.06720000  0.24620000  0.27920000  1.0
  F  F8  1  0.97150000  0.08250000  0.98170000  1.0
  F  F9  1  0.47150000  0.41750000  0.01830000  1.0
  F  F10  1  0.02850000  0.58250000  0.51830000  1.0
  F  F11  1  0.52850000  0.91750000  0.48170000  1.0
