# generated using pymatgen
data_Na3HfF7
_symmetry_space_group_name_H-M   'P 1'
_cell_length_a   5.31000032
_cell_length_b   5.31000000
_cell_length_c   5.31000000
_cell_angle_alpha   90.00000000
_cell_angle_beta   114.28910406
_cell_angle_gamma   114.28910406
_symmetry_Int_Tables_number   1
_chemical_formula_structural   Na3HfF7
_chemical_formula_sum   'Na3 Hf1 F7'
_cell_volume   121.78123969
_cell_formula_units_Z   1
loop_
 _symmetry_equiv_pos_site_id
 _symmetry_equiv_pos_as_xyz
  1  'x, y, z'
loop_
 _atom_site_type_symbol
 _atom_site_label
 _atom_site_symmetry_multiplicity
 _atom_site_fract_x
 _atom_site_fract_y
 _atom_site_fract_z
 _atom_site_occupancy
  Na  Na8  1  0.50000000  0.25000000  0.75000000  1.0
  Na  Na9  1  0.00000000  0.50000000  0.50000000  1.0
  Na  Na10  1  0.50000000  0.75000000  0.25000000  1.0
  Hf  Hf7  1  0.00000000  0.00000000  0.00000000  1.0
  F  F0  1  0.75000000  0.12500000  0.12500000  1.0
  F  F1  1  0.75000000  0.12500000  0.62500000  1.0
  F  F2  1  0.25000000  0.37500000  0.87500000  1.0
  F  F3  1  0.75000000  0.62500000  0.12500000  1.0
  F  F4  1  0.75000000  0.62500000  0.62500000  1.0
  F  F5  1  0.25000000  0.87500000  0.37500000  1.0
  F  F6  1  0.25000000  0.87500000  0.87500000  1.0
