# generated using pymatgen
data_H2O
_symmetry_space_group_name_H-M   'P 1'
_cell_length_a   4.50190000
_cell_length_b   4.50202145
_cell_length_c   7.32800000
_cell_angle_alpha   90.00000000
_cell_angle_beta   90.00000000
_cell_angle_gamma   119.99910764
_symmetry_Int_Tables_number   1
_chemical_formula_structural   H2O
_chemical_formula_sum   'H8 O4'
_cell_volume   128.62441164
_cell_formula_units_Z   4
loop_
 _symmetry_equiv_pos_site_id
 _symmetry_equiv_pos_as_xyz
  1  'x, y, z'
loop_
 _atom_site_type_symbol
 _atom_site_label
 _atom_site_symmetry_multiplicity
 _atom_site_fract_x
 _atom_site_fract_y
 _atom_site_fract_z
 _atom_site_occupancy
  H  H0  1  0.66360000  0.32720000  0.30370000  1.0
  H  H1  1  0.33640000  0.67280000  0.80370000  1.0
  H  H2  1  0.53630000  0.07260000  0.48170000  1.0
  H  H3  1  0.46370000  0.92740000  0.98170000  1.0
  H  H4  1  0.45140000  0.54960000  0.51830000  1.0
  H  H5  1  0.09820000  0.54960000  0.51830000  1.0
  H  H6  1  0.54860000  0.45040000  0.01830000  1.0
  H  H7  1  0.90180000  0.45040000  0.01830000  1.0
  O  O8  1  0.66480000  0.32960000  0.43690000  1.0
  O  O9  1  0.33520000  0.67040000  0.93690000  1.0
  O  O10  1  0.32550000  0.65100000  0.56310000  1.0
  O  O11  1  0.67450000  0.34900000  0.06310000  1.0
