# generated using pymatgen
data_Na2SiO3
_symmetry_space_group_name_H-M   'P 1'
_cell_length_a   4.71000000
_cell_length_b   6.03000000
_cell_length_c   6.03941338
_cell_angle_alpha   119.94845340
_cell_angle_beta   90.00000000
_cell_angle_gamma   90.00000000
_symmetry_Int_Tables_number   1
_chemical_formula_structural   Na2SiO3
_chemical_formula_sum   'Na4 Si2 O6'
_cell_volume   148.62400281
_cell_formula_units_Z   2
loop_
 _symmetry_equiv_pos_site_id
 _symmetry_equiv_pos_as_xyz
  1  'x, y, z'
loop_
 _atom_site_type_symbol
 _atom_site_label
 _atom_site_symmetry_multiplicity
 _atom_site_fract_x
 _atom_site_fract_y
 _atom_site_fract_z
 _atom_site_occupancy
  Na  Na0  1  0.50000000  0.49340000  0.66860000  1.0
  Na  Na1  1  0.50000000  0.82480000  0.33140000  1.0
  Na  Na2  1  0.00000000  0.50660000  0.33140000  1.0
  Na  Na3  1  0.00000000  0.17520000  0.66860000  1.0
  Si  Si10  1  0.53960000  0.15880000  0.00000000  1.0
  Si  Si11  1  0.03960000  0.84120000  0.00000000  1.0
  O  O4  1  0.38480000  0.91010000  0.00000000  1.0
  O  O5  1  0.88480000  0.08990000  0.00000000  1.0
  O  O6  1  0.48110000  0.41950000  0.26140000  1.0
  O  O7  1  0.98110000  0.58050000  0.73860000  1.0
  O  O8  1  0.48110000  0.15810000  0.73860000  1.0
  O  O9  1  0.98110000  0.84190000  0.26140000  1.0
