# generated using pymatgen
data_Li2TiTeO6
_symmetry_space_group_name_H-M   'P 1'
_cell_length_a   4.99098700
_cell_length_b   5.13602100
_cell_length_c   8.48698300
_cell_angle_alpha   90.00000000
_cell_angle_beta   90.00000000
_cell_angle_gamma   90.00000000
_symmetry_Int_Tables_number   1
_chemical_formula_structural   Li2TiTeO6
_chemical_formula_sum   'Li4 Ti2 Te2 O12'
_cell_volume   217.55374401
_cell_formula_units_Z   2
loop_
 _symmetry_equiv_pos_site_id
 _symmetry_equiv_pos_as_xyz
  1  'x, y, z'
loop_
 _atom_site_type_symbol
 _atom_site_label
 _atom_site_symmetry_multiplicity
 _atom_site_fract_x
 _atom_site_fract_y
 _atom_site_fract_z
 _atom_site_occupancy
  Li  Li0  1  0.00000000  0.00000000  0.30258800  1.0
  Li  Li1  1  0.50000000  0.00000000  0.17829300  1.0
  Li  Li2  1  0.00000000  0.50000000  0.67829300  1.0
  Li  Li3  1  0.50000000  0.50000000  0.80258800  1.0
  Ti  Ti4  1  0.00000000  0.00000000  0.89176300  1.0
  Ti  Ti5  1  0.50000000  0.50000000  0.39176300  1.0
  Te  Te6  1  0.50000000  0.00000000  0.58601600  1.0
  Te  Te7  1  0.00000000  0.50000000  0.08601600  1.0
  O  O8  1  0.74255600  0.85307300  0.74369200  1.0
  O  O9  1  0.70313200  0.82617200  0.41633800  1.0
  O  O10  1  0.80073000  0.82132300  0.07537100  1.0
  O  O11  1  0.30073000  0.67867700  0.57537100  1.0
  O  O12  1  0.20313200  0.67382800  0.91633800  1.0
  O  O13  1  0.24255600  0.64692700  0.24369200  1.0
  O  O14  1  0.75744400  0.35307300  0.24369200  1.0
  O  O15  1  0.79686800  0.32617200  0.91633800  1.0
  O  O16  1  0.69927000  0.32132300  0.57537100  1.0
  O  O17  1  0.19927000  0.17867700  0.07537100  1.0
  O  O18  1  0.29686800  0.17382800  0.41633800  1.0
  O  O19  1  0.25744400  0.14692700  0.74369200  1.0
