# generated using pymatgen
data_Zn(IO3)2
_symmetry_space_group_name_H-M   'P 1'
_cell_length_a   5.46900000
_cell_length_b   5.11580000
_cell_length_c   9.47258587
_cell_angle_alpha   90.00000000
_cell_angle_beta   90.00000000
_cell_angle_gamma   90.00000000
_symmetry_Int_Tables_number   1
_chemical_formula_structural   Zn(IO3)2
_chemical_formula_sum   'Zn2 I4 O12'
_cell_volume   265.02694587
_cell_formula_units_Z   2
loop_
 _symmetry_equiv_pos_site_id
 _symmetry_equiv_pos_as_xyz
  1  'x, y, z'
loop_
 _atom_site_type_symbol
 _atom_site_label
 _atom_site_symmetry_multiplicity
 _atom_site_fract_x
 _atom_site_fract_y
 _atom_site_fract_z
 _atom_site_occupancy
  Zn  Zn0  1  0.75000000  0.09500000  0.25000000  1.0
  Zn  Zn1  1  0.25000000  0.59500000  0.75000000  1.0
  I  I2  1  0.73400000  0.50000000  0.92800000  1.0
  I  I3  1  0.26600000  0.00000000  0.07200000  1.0
  I  I4  1  0.75000000  0.00000000  0.59900000  1.0
  I  I5  1  0.25000000  0.50000000  0.40100000  1.0
  O  O6  1  0.54000000  0.32800000  0.39400000  1.0
  O  O7  1  0.46000000  0.82800000  0.60600000  1.0
  O  O8  1  0.12000000  0.32800000  0.55200000  1.0
  O  O9  1  0.88000000  0.82800000  0.44800000  1.0
  O  O10  1  0.09400000  0.32800000  0.26100000  1.0
  O  O11  1  0.90600000  0.82800000  0.73900000  1.0
  O  O12  1  0.35500000  0.82800000  0.91300000  1.0
  O  O13  1  0.64500000  0.32800000  0.08700000  1.0
  O  O14  1  0.45800000  0.82800000  0.19800000  1.0
  O  O15  1  0.54200000  0.32800000  0.80200000  1.0
  O  O16  1  0.98500000  0.82800000  0.10600000  1.0
  O  O17  1  0.01500000  0.32800000  0.89400000  1.0
