# generated using pymatgen
data_BrF5
_symmetry_space_group_name_H-M   'P 1'
_cell_length_a   4.84076722
_cell_length_b   4.84076722
_cell_length_c   7.84600000
_cell_angle_alpha   90.00000000
_cell_angle_beta   90.00000000
_cell_angle_gamma   96.89215675
_symmetry_Int_Tables_number   1
_chemical_formula_structural   BrF5
_chemical_formula_sum   'Br2 F10'
_cell_volume   182.52695118
_cell_formula_units_Z   2
loop_
 _symmetry_equiv_pos_site_id
 _symmetry_equiv_pos_as_xyz
  1  'x, y, z'
loop_
 _atom_site_type_symbol
 _atom_site_label
 _atom_site_symmetry_multiplicity
 _atom_site_fract_x
 _atom_site_fract_y
 _atom_site_fract_z
 _atom_site_occupancy
  Br  Br0  1  0.17070000  0.82930000  0.25000000  1.0
  Br  Br1  1  0.82930000  0.17070000  0.75000000  1.0
  F  F2  1  0.91500000  0.54300000  0.23900000  1.0
  F  F3  1  0.08500000  0.45700000  0.73900000  1.0
  F  F4  1  0.64700000  0.35300000  0.61800000  1.0
  F  F5  1  0.35300000  0.64700000  0.11800000  1.0
  F  F6  1  0.64500000  0.35500000  0.90500000  1.0
  F  F7  1  0.35500000  0.64500000  0.40500000  1.0
  F  F8  1  0.97200000  0.02800000  0.55900000  1.0
  F  F9  1  0.02800000  0.97200000  0.05900000  1.0
  F  F10  1  0.54300000  0.91500000  0.73900000  1.0
  F  F11  1  0.45700000  0.08500000  0.23900000  1.0
