# generated using pymatgen
data_Bi2O3
_symmetry_space_group_name_H-M   'P 1'
_cell_length_a   7.74100000
_cell_length_b   7.74100000
_cell_length_c   5.63400000
_cell_angle_alpha   90.00000000
_cell_angle_beta   90.00000000
_cell_angle_gamma   90.00000000
_symmetry_Int_Tables_number   1
_chemical_formula_structural   Bi2O3
_chemical_formula_sum   'Bi8 O12'
_cell_volume   337.60663835
_cell_formula_units_Z   4
loop_
 _symmetry_equiv_pos_site_id
 _symmetry_equiv_pos_as_xyz
  1  'x, y, z'
loop_
 _atom_site_type_symbol
 _atom_site_label
 _atom_site_symmetry_multiplicity
 _atom_site_fract_x
 _atom_site_fract_y
 _atom_site_fract_z
 _atom_site_occupancy
  Bi  Bi0  1  0.48220000  0.75390000  0.75320000  1.0
  Bi  Bi1  1  0.51780000  0.24610000  0.75320000  1.0
  Bi  Bi2  1  0.24610000  0.48220000  0.24680000  1.0
  Bi  Bi3  1  0.75390000  0.51780000  0.24680000  1.0
  Bi  Bi4  1  0.25390000  0.98220000  0.25320000  1.0
  Bi  Bi5  1  0.98220000  0.74610000  0.74680000  1.0
  Bi  Bi6  1  0.01780000  0.25390000  0.74680000  1.0
  Bi  Bi7  1  0.74610000  0.01780000  0.25320000  1.0
  O  O8  1  0.50000000  0.00000000  0.60100000  1.0
  O  O9  1  0.00000000  0.50000000  0.39900000  1.0
  O  O10  1  0.00000000  0.50000000  0.89900000  1.0
  O  O11  1  0.50000000  0.00000000  0.10100000  1.0
  O  O12  1  0.20500000  0.80740000  0.52700000  1.0
  O  O13  1  0.79500000  0.19260000  0.52700000  1.0
  O  O14  1  0.19260000  0.20500000  0.47300000  1.0
  O  O15  1  0.80740000  0.79500000  0.47300000  1.0
  O  O16  1  0.69260000  0.29500000  0.02700000  1.0
  O  O17  1  0.29500000  0.30740000  0.97300000  1.0
  O  O18  1  0.70500000  0.69260000  0.97300000  1.0
  O  O19  1  0.30740000  0.70500000  0.02700000  1.0
