# generated using pymatgen
data_Na3AsO4
_symmetry_space_group_name_H-M   'P 1'
_cell_length_a   7.07273200
_cell_length_b   6.02502500
_cell_length_c   5.63732000
_cell_angle_alpha   90.00000000
_cell_angle_beta   90.00000000
_cell_angle_gamma   90.00000000
_symmetry_Int_Tables_number   1
_chemical_formula_structural   Na3AsO4
_chemical_formula_sum   'Na6 As2 O8'
_cell_volume   240.22529947
_cell_formula_units_Z   2
loop_
 _symmetry_equiv_pos_site_id
 _symmetry_equiv_pos_as_xyz
  1  'x, y, z'
loop_
 _atom_site_type_symbol
 _atom_site_label
 _atom_site_symmetry_multiplicity
 _atom_site_fract_x
 _atom_site_fract_y
 _atom_site_fract_z
 _atom_site_occupancy
  Na  Na0  1  0.00000000  0.84093300  0.50439300  1.0
  Na  Na1  1  0.24888900  0.67324700  0.00393900  1.0
  Na  Na2  1  0.25111100  0.32675300  0.50393900  1.0
  Na  Na3  1  0.50000000  0.15906700  0.00439300  1.0
  Na  Na4  1  0.74888900  0.32675300  0.50393900  1.0
  Na  Na5  1  0.75111100  0.67324700  0.00393900  1.0
  As  As6  1  0.00000000  0.16980900  0.99834100  1.0
  As  As7  1  0.50000000  0.83019100  0.49834100  1.0
  O  O8  1  0.00000000  0.89834000  0.09658000  1.0
  O  O9  1  0.00000000  0.17523600  0.69297600  1.0
  O  O10  1  0.30006300  0.69369600  0.59977100  1.0
  O  O11  1  0.19993700  0.30630400  0.09977100  1.0
  O  O12  1  0.50000000  0.82476400  0.19297600  1.0
  O  O13  1  0.50000000  0.10166000  0.59658000  1.0
  O  O14  1  0.80006300  0.30630400  0.09977100  1.0
  O  O15  1  0.69993700  0.69369600  0.59977100  1.0
