# generated using pymatgen
data_BaSiO3
_symmetry_space_group_name_H-M   'P 1'
_cell_length_a   4.58000000
_cell_length_b   5.61100000
_cell_length_c   12.43100000
_cell_angle_alpha   90.00000000
_cell_angle_beta   90.00000000
_cell_angle_gamma   90.00000000
_symmetry_Int_Tables_number   1
_chemical_formula_structural   BaSiO3
_chemical_formula_sum   'Ba4 Si4 O12'
_cell_volume   319.45656178
_cell_formula_units_Z   4
loop_
 _symmetry_equiv_pos_site_id
 _symmetry_equiv_pos_as_xyz
  1  'x, y, z'
loop_
 _atom_site_type_symbol
 _atom_site_label
 _atom_site_symmetry_multiplicity
 _atom_site_fract_x
 _atom_site_fract_y
 _atom_site_fract_z
 _atom_site_occupancy
  Ba  Ba0  1  0.72851000  0.81000000  0.85607000  1.0
  Ba  Ba1  1  0.22851000  0.69000000  0.14393000  1.0
  Ba  Ba2  1  0.27149000  0.31000000  0.64393000  1.0
  Ba  Ba3  1  0.77149000  0.19000000  0.35607000  1.0
  Si  Si4  1  0.17660000  0.29720000  0.92620000  1.0
  Si  Si5  1  0.67660000  0.20280000  0.07380000  1.0
  Si  Si6  1  0.82340000  0.79720000  0.57380000  1.0
  Si  Si7  1  0.32340000  0.70280000  0.42620000  1.0
  O  O8  1  0.23890000  0.56970000  0.90080000  1.0
  O  O9  1  0.73890000  0.93030000  0.09920000  1.0
  O  O10  1  0.76110000  0.06970000  0.59920000  1.0
  O  O11  1  0.26110000  0.43030000  0.40080000  1.0
  O  O12  1  0.24370000  0.10820000  0.83410000  1.0
  O  O13  1  0.74370000  0.39180000  0.16590000  1.0
  O  O14  1  0.75630000  0.60820000  0.66590000  1.0
  O  O15  1  0.25630000  0.89180000  0.33410000  1.0
  O  O16  1  0.67370000  0.72180000  0.45680000  1.0
  O  O17  1  0.17370000  0.77820000  0.54320000  1.0
  O  O18  1  0.32630000  0.22180000  0.04320000  1.0
  O  O19  1  0.82630000  0.27820000  0.95680000  1.0
