# generated using pymatgen
data_Al2PbO4
_symmetry_space_group_name_H-M   'P 1'
_cell_length_a   5.07000000
_cell_length_b   5.26715426
_cell_length_c   8.45800000
_cell_angle_alpha   90.00000000
_cell_angle_beta   90.00000000
_cell_angle_gamma   118.76933205
_symmetry_Int_Tables_number   1
_chemical_formula_structural   Al2PbO4
_chemical_formula_sum   'Al4 Pb2 O8'
_cell_volume   197.98647102
_cell_formula_units_Z   2
loop_
 _symmetry_equiv_pos_site_id
 _symmetry_equiv_pos_as_xyz
  1  'x, y, z'
loop_
 _atom_site_type_symbol
 _atom_site_label
 _atom_site_symmetry_multiplicity
 _atom_site_fract_x
 _atom_site_fract_y
 _atom_site_fract_z
 _atom_site_occupancy
  Al  Al0  1  0.36100000  0.65660000  0.44590000  1.0
  Al  Al1  1  0.70440000  0.34340000  0.55410000  1.0
  Al  Al2  1  0.36100000  0.65660000  0.05410000  1.0
  Al  Al3  1  0.70440000  0.34340000  0.94590000  1.0
  Pb  Pb12  1  0.97040000  0.94020000  0.25000000  1.0
  Pb  Pb13  1  0.03020000  0.05980000  0.75000000  1.0
  O  O4  1  0.46780000  0.63020000  0.25000000  1.0
  O  O5  1  0.83760000  0.36980000  0.75000000  1.0
  O  O6  1  0.64120000  0.00000000  0.50000000  1.0
  O  O7  1  0.64120000  0.00000000  0.00000000  1.0
  O  O8  1  0.99690000  0.61840000  0.44360000  1.0
  O  O9  1  0.37850000  0.38160000  0.55640000  1.0
  O  O10  1  0.37850000  0.38160000  0.94360000  1.0
  O  O11  1  0.99690000  0.61840000  0.05640000  1.0
