# generated using pymatgen
data_Rb2SnO2
_symmetry_space_group_name_H-M   'P 1'
_cell_length_a   5.76100000
_cell_length_b   7.49300000
_cell_length_c   11.16700000
_cell_angle_alpha   90.00000000
_cell_angle_beta   90.00000000
_cell_angle_gamma   90.00000000
_symmetry_Int_Tables_number   1
_chemical_formula_structural   Rb2SnO2
_chemical_formula_sum   'Rb8 Sn4 O8'
_cell_volume   482.04782089
_cell_formula_units_Z   4
loop_
 _symmetry_equiv_pos_site_id
 _symmetry_equiv_pos_as_xyz
  1  'x, y, z'
loop_
 _atom_site_type_symbol
 _atom_site_label
 _atom_site_symmetry_multiplicity
 _atom_site_fract_x
 _atom_site_fract_y
 _atom_site_fract_z
 _atom_site_occupancy
  Rb  Rb0  1  0.98220000  0.64150000  0.73630000  1.0
  Rb  Rb1  1  0.51780000  0.35850000  0.23630000  1.0
  Rb  Rb2  1  0.01120000  0.60570000  0.41440000  1.0
  Rb  Rb3  1  0.48880000  0.39430000  0.91440000  1.0
  Rb  Rb4  1  0.98880000  0.10570000  0.08560000  1.0
  Rb  Rb5  1  0.51120000  0.89430000  0.58560000  1.0
  Rb  Rb6  1  0.48220000  0.85850000  0.26370000  1.0
  Rb  Rb7  1  0.01780000  0.14150000  0.76370000  1.0
  Sn  Sn8  1  0.49590000  0.88830000  0.94240000  1.0
  Sn  Sn9  1  0.50410000  0.38830000  0.55760000  1.0
  Sn  Sn10  1  0.00410000  0.11170000  0.44240000  1.0
  Sn  Sn11  1  0.99590000  0.61170000  0.05760000  1.0
  O  O12  1  0.33620000  0.69620000  0.05250000  1.0
  O  O13  1  0.53370000  0.58390000  0.43600000  1.0
  O  O14  1  0.03370000  0.91610000  0.56400000  1.0
  O  O15  1  0.16380000  0.30380000  0.55250000  1.0
  O  O16  1  0.46630000  0.08390000  0.06400000  1.0
  O  O17  1  0.66380000  0.19620000  0.44750000  1.0
  O  O18  1  0.83620000  0.80380000  0.94750000  1.0
  O  O19  1  0.96630000  0.41610000  0.93600000  1.0
