# generated using pymatgen
data_ReH3O5
_symmetry_space_group_name_H-M   'P 1'
_cell_length_a   5.83200000
_cell_length_b   5.83200000
_cell_length_c   7.67180948
_cell_angle_alpha   112.33943470
_cell_angle_beta   112.33943470
_cell_angle_gamma   90.00000000
_symmetry_Int_Tables_number   1
_chemical_formula_structural   ReH3O5
_chemical_formula_sum   'Re2 H6 O10'
_cell_volume   220.03187959
_cell_formula_units_Z   2
loop_
 _symmetry_equiv_pos_site_id
 _symmetry_equiv_pos_as_xyz
  1  'x, y, z'
loop_
 _atom_site_type_symbol
 _atom_site_label
 _atom_site_symmetry_multiplicity
 _atom_site_fract_x
 _atom_site_fract_y
 _atom_site_fract_z
 _atom_site_occupancy
  Re  Re0  1  0.87500000  0.12500000  0.25000000  1.0
  Re  Re1  1  0.12500000  0.87500000  0.75000000  1.0
  H  H2  1  0.48107800  0.78876500  0.29527700  1.0
  H  H3  1  0.35378700  0.46509600  0.12916200  1.0
  H  H4  1  0.33593400  0.64621300  0.37083800  1.0
  H  H5  1  0.50651100  0.48107700  0.79527600  1.0
  H  H6  1  0.66406600  0.35378700  0.62916200  1.0
  H  H7  1  0.72462500  0.33593400  0.87083800  1.0
  O  O8  1  0.37500000  0.62500000  0.25000000  1.0
  O  O9  1  0.62500000  0.37500000  0.75000000  1.0
  O  O10  1  0.73660000  0.31440000  0.40480000  1.0
  O  O11  1  0.16820000  0.09040000  0.40480000  1.0
  O  O12  1  0.31440000  0.16820000  0.90480000  1.0
  O  O13  1  0.09040000  0.73660000  0.90480000  1.0
  O  O14  1  0.26340000  0.68560000  0.59520000  1.0
  O  O15  1  0.83180000  0.90960000  0.59520000  1.0
  O  O16  1  0.68560000  0.83180000  0.09520000  1.0
  O  O17  1  0.90960000  0.26340000  0.09520000  1.0
