# generated using pymatgen
data_NbOF3
_symmetry_space_group_name_H-M   'P 1'
_cell_length_a   5.54446200
_cell_length_b   5.57514500
_cell_length_c   9.65895700
_cell_angle_alpha   90.00000000
_cell_angle_beta   90.00000000
_cell_angle_gamma   90.00000000
_symmetry_Int_Tables_number   1
_chemical_formula_structural   NbOF3
_chemical_formula_sum   'Nb4 O4 F12'
_cell_volume   298.56975455
_cell_formula_units_Z   4
loop_
 _symmetry_equiv_pos_site_id
 _symmetry_equiv_pos_as_xyz
  1  'x, y, z'
loop_
 _atom_site_type_symbol
 _atom_site_label
 _atom_site_symmetry_multiplicity
 _atom_site_fract_x
 _atom_site_fract_y
 _atom_site_fract_z
 _atom_site_occupancy
  Nb  Nb0  1  0.62676600  0.58131900  0.63936800  1.0
  Nb  Nb1  1  0.87323400  0.41868100  0.13936800  1.0
  Nb  Nb2  1  0.37323400  0.08131900  0.86063200  1.0
  Nb  Nb3  1  0.12676600  0.91868100  0.36063200  1.0
  O  O4  1  0.05435300  0.60424800  0.25829500  1.0
  O  O5  1  0.44564700  0.39575200  0.75829500  1.0
  O  O6  1  0.94564700  0.10424800  0.24170500  1.0
  O  O7  1  0.55435300  0.89575200  0.74170500  1.0
  F  F8  1  0.36317500  0.69445700  0.50594800  1.0
  F  F9  1  0.80042700  0.66819800  0.01083000  1.0
  F  F10  1  0.57264500  0.45054700  0.23072600  1.0
  F  F11  1  0.92735500  0.54945300  0.73072600  1.0
  F  F12  1  0.69957300  0.33180200  0.51083000  1.0
  F  F13  1  0.13682500  0.30554300  0.00594800  1.0
  F  F14  1  0.63682500  0.19445700  0.99405200  1.0
  F  F15  1  0.19957300  0.16819800  0.48917000  1.0
  F  F16  1  0.42735500  0.95054700  0.26927400  1.0
  F  F17  1  0.07264500  0.04945300  0.76927400  1.0
  F  F18  1  0.30042700  0.83180200  0.98917000  1.0
  F  F19  1  0.86317500  0.80554300  0.49405200  1.0
