# generated using pymatgen
data_KLiBeF4
_symmetry_space_group_name_H-M   'P 1'
_cell_length_a   5.07390000
_cell_length_b   5.07390000
_cell_length_c   8.56740000
_cell_angle_alpha   90.00000000
_cell_angle_beta   90.00000000
_cell_angle_gamma   120.00000000
_symmetry_Int_Tables_number   1
_chemical_formula_structural   KLiBeF4
_chemical_formula_sum   'K2 Li2 Be2 F8'
_cell_volume   191.01324511
_cell_formula_units_Z   2
loop_
 _symmetry_equiv_pos_site_id
 _symmetry_equiv_pos_as_xyz
  1  'x, y, z'
loop_
 _atom_site_type_symbol
 _atom_site_label
 _atom_site_symmetry_multiplicity
 _atom_site_fract_x
 _atom_site_fract_y
 _atom_site_fract_z
 _atom_site_occupancy
  K  K0  1  0.00000000  0.00000000  0.51600000  1.0
  K  K1  1  0.00000000  0.00000000  0.01600000  1.0
  Li  Li2  1  0.66666667  0.33333333  0.30000000  1.0
  Li  Li3  1  0.33333333  0.66666667  0.80000000  1.0
  Be  Be4  1  0.33333333  0.66666667  0.18700000  1.0
  Be  Be5  1  0.66666667  0.33333333  0.68700000  1.0
  F  F6  1  0.61200001  0.66300001  0.25600000  1.0
  F  F7  1  0.66300001  0.05100000  0.75600000  1.0
  F  F8  1  0.33333333  0.66666667  0.99500000  1.0
  F  F9  1  0.66666667  0.33333333  0.49500000  1.0
  F  F10  1  0.33699999  0.94900000  0.25600000  1.0
  F  F11  1  0.38799999  0.33699999  0.75600000  1.0
  F  F12  1  0.94900000  0.61200001  0.75600000  1.0
  F  F13  1  0.05100000  0.38799999  0.25600000  1.0
