# generated using pymatgen
data_NClO3
_symmetry_space_group_name_H-M   'P 1'
_cell_length_a   4.10195900
_cell_length_b   6.98872900
_cell_length_c   11.94557600
_cell_angle_alpha   90.00000000
_cell_angle_beta   90.00000000
_cell_angle_gamma   90.00000000
_symmetry_Int_Tables_number   1
_chemical_formula_structural   NClO3
_chemical_formula_sum   'N4 Cl4 O12'
_cell_volume   342.44955892
_cell_formula_units_Z   4
loop_
 _symmetry_equiv_pos_site_id
 _symmetry_equiv_pos_as_xyz
  1  'x, y, z'
loop_
 _atom_site_type_symbol
 _atom_site_label
 _atom_site_symmetry_multiplicity
 _atom_site_fract_x
 _atom_site_fract_y
 _atom_site_fract_z
 _atom_site_occupancy
  N  N0  1  0.16481900  0.98871700  0.53557900  1.0
  N  N1  1  0.33518100  0.01128300  0.03557900  1.0
  N  N2  1  0.66481900  0.51128300  0.46442100  1.0
  N  N3  1  0.83518100  0.48871700  0.96442100  1.0
  Cl  Cl4  1  0.21695200  0.95635300  0.75825700  1.0
  Cl  Cl5  1  0.28304800  0.04364700  0.25825700  1.0
  Cl  Cl6  1  0.71695200  0.54364700  0.24174300  1.0
  Cl  Cl7  1  0.78304800  0.45635300  0.74174300  1.0
  O  O8  1  0.02204900  0.92870900  0.45343400  1.0
  O  O9  1  0.03179300  0.88566100  0.64002000  1.0
  O  O10  1  0.12438700  0.89414500  0.04852900  1.0
  O  O11  1  0.37561300  0.10585500  0.54852900  1.0
  O  O12  1  0.46820700  0.11433900  0.14002000  1.0
  O  O13  1  0.47795100  0.07129100  0.95343400  1.0
  O  O14  1  0.52204900  0.57129100  0.54656600  1.0
  O  O15  1  0.53179300  0.61433900  0.35998000  1.0
  O  O16  1  0.62438700  0.60585500  0.95147100  1.0
  O  O17  1  0.87561300  0.39414500  0.45147100  1.0
  O  O18  1  0.96820700  0.38566100  0.85998000  1.0
  O  O19  1  0.97795100  0.42870900  0.04656600  1.0
