# generated using pymatgen
data_Na4SnO3
_symmetry_space_group_name_H-M   'P 1'
_cell_length_a   5.82770000
_cell_length_b   5.89420000
_cell_length_c   8.83172835
_cell_angle_alpha   83.46247617
_cell_angle_beta   70.73548784
_cell_angle_gamma   69.81300000
_symmetry_Int_Tables_number   1
_chemical_formula_structural   Na4SnO3
_chemical_formula_sum   'Na8 Sn2 O6'
_cell_volume   268.78780789
_cell_formula_units_Z   2
loop_
 _symmetry_equiv_pos_site_id
 _symmetry_equiv_pos_as_xyz
  1  'x, y, z'
loop_
 _atom_site_type_symbol
 _atom_site_label
 _atom_site_symmetry_multiplicity
 _atom_site_fract_x
 _atom_site_fract_y
 _atom_site_fract_z
 _atom_site_occupancy
  Na  Na0  1  0.54930000  0.75050000  0.93380000  1.0
  Na  Na1  1  0.93580000  0.77840000  0.08640000  1.0
  Na  Na2  1  0.68990000  0.30950000  0.71660000  1.0
  Na  Na3  1  0.40650000  0.80950000  0.28340000  1.0
  Na  Na4  1  0.72810000  0.74150000  0.50840000  1.0
  Na  Na5  1  0.23650000  0.24150000  0.49160000  1.0
  Na  Na6  1  0.02220000  0.27840000  0.91360000  1.0
  Na  Na7  1  0.48310000  0.25050000  0.06620000  1.0
  Sn  Sn14  1  0.84730000  0.24790000  0.28660000  1.0
  Sn  Sn15  1  0.13390000  0.74790000  0.71340000  1.0
  O  O8  1  0.63370000  0.03150000  0.32300000  1.0
  O  O9  1  0.95670000  0.53150000  0.67700000  1.0
  O  O10  1  0.69100000  0.48770000  0.13340000  1.0
  O  O11  1  0.82440000  0.98770000  0.86660000  1.0
  O  O12  1  0.17310000  0.04550000  0.12740000  1.0
  O  O13  1  0.30050000  0.54550000  0.87260000  1.0
