# generated using pymatgen
data_RbTl(SO4)2
_symmetry_space_group_name_H-M   'P 1'
_cell_length_a   4.93000011
_cell_length_b   4.93000011
_cell_length_c   8.83126458
_cell_angle_alpha   73.79219128
_cell_angle_beta   73.79219128
_cell_angle_gamma   60.00000000
_symmetry_Int_Tables_number   1
_chemical_formula_structural   RbTl(SO4)2
_chemical_formula_sum   'Rb1 Tl1 S2 O8'
_cell_volume   175.96681294
_cell_formula_units_Z   1
loop_
 _symmetry_equiv_pos_site_id
 _symmetry_equiv_pos_as_xyz
  1  'x, y, z'
loop_
 _atom_site_type_symbol
 _atom_site_label
 _atom_site_symmetry_multiplicity
 _atom_site_fract_x
 _atom_site_fract_y
 _atom_site_fract_z
 _atom_site_occupancy
  Rb  Rb8  1  0.00000000  0.00000000  0.00000000  1.0
  Tl  Tl11  1  0.50000000  0.50000000  0.50000000  1.0
  S  S9  1  0.23950000  0.23950000  0.28150000  1.0
  S  S10  1  0.76050000  0.76050000  0.71850000  1.0
  O  O0  1  0.29850000  0.29850000  0.10450000  1.0
  O  O1  1  0.70150000  0.70150000  0.89550000  1.0
  O  O2  1  0.06060000  0.77460000  0.66090000  1.0
  O  O3  1  0.93940000  0.49610000  0.33910000  1.0
  O  O4  1  0.49610000  0.22540000  0.33910000  1.0
  O  O5  1  0.50390000  0.06060000  0.66090000  1.0
  O  O6  1  0.77460000  0.50390000  0.66090000  1.0
  O  O7  1  0.22540000  0.93940000  0.33910000  1.0
