# generated using pymatgen
data_VAgO3
_symmetry_space_group_name_H-M   'P 1'
_cell_length_a   3.57368235
_cell_length_b   8.15380085
_cell_length_c   9.51453397
_cell_angle_alpha   104.83075493
_cell_angle_beta   100.82449417
_cell_angle_gamma   90.00000000
_symmetry_Int_Tables_number   1
_chemical_formula_structural   VAgO3
_chemical_formula_sum   'V4 Ag4 O12'
_cell_volume   262.90255260
_cell_formula_units_Z   4
loop_
 _symmetry_equiv_pos_site_id
 _symmetry_equiv_pos_as_xyz
  1  'x, y, z'
loop_
 _atom_site_type_symbol
 _atom_site_label
 _atom_site_symmetry_multiplicity
 _atom_site_fract_x
 _atom_site_fract_y
 _atom_site_fract_z
 _atom_site_occupancy
  V  V16  1  0.32342300  0.43680300  0.64684600  1.0
  V  V17  1  0.87576900  0.77108900  0.75153800  1.0
  V  V18  1  0.67743950  0.56611700  0.35487900  1.0
  V  V19  1  0.12894100  0.23151300  0.25788200  1.0
  Ag  Ag0  1  0.25216800  0.96092100  0.50433600  1.0
  Ag  Ag1  1  0.00023150  0.49790300  0.00046300  1.0
  Ag  Ag2  1  0.45091450  0.13778900  0.90182900  1.0
  Ag  Ag3  1  0.55199600  0.86690400  0.10399200  1.0
  O  O4  1  0.65185700  0.29376400  0.30371400  1.0
  O  O5  1  0.73629650  0.76513400  0.47259300  1.0
  O  O6  1  0.40862850  0.40283300  0.81725700  1.0
  O  O7  1  0.12266000  0.01888200  0.24532000  1.0
  O  O8  1  0.35121700  0.71337400  0.70243400  1.0
  O  O9  1  0.88095300  0.98328900  0.76190600  1.0
  O  O10  1  0.81420100  0.50792700  0.62840200  1.0
  O  O11  1  0.26348650  0.24337000  0.52697300  1.0
  O  O12  1  0.18880500  0.50158100  0.37761000  1.0
  O  O13  1  0.96635900  0.76373400  0.93271800  1.0
  O  O14  1  0.03795650  0.23710900  0.07591300  1.0
  O  O15  1  0.59188750  0.59726500  0.18377500  1.0
