# generated using pymatgen
data_NbBr3O
_symmetry_space_group_name_H-M   'P 1'
_cell_length_a   11.63450000
_cell_length_b   11.63450000
_cell_length_c   3.95260000
_cell_angle_alpha   90.00000000
_cell_angle_beta   90.00000000
_cell_angle_gamma   90.00000000
_symmetry_Int_Tables_number   1
_chemical_formula_structural   NbBr3O
_chemical_formula_sum   'Nb4 Br12 O4'
_cell_volume   535.03022162
_cell_formula_units_Z   4
loop_
 _symmetry_equiv_pos_site_id
 _symmetry_equiv_pos_as_xyz
  1  'x, y, z'
loop_
 _atom_site_type_symbol
 _atom_site_label
 _atom_site_symmetry_multiplicity
 _atom_site_fract_x
 _atom_site_fract_y
 _atom_site_fract_z
 _atom_site_occupancy
  Nb  Nb0  1  0.37520000  0.12480000  0.20000000  1.0
  Nb  Nb1  1  0.62480000  0.87520000  0.20000000  1.0
  Nb  Nb2  1  0.87520000  0.37520000  0.80000000  1.0
  Nb  Nb3  1  0.12480000  0.62480000  0.80000000  1.0
  Br  Br4  1  0.89650000  0.60350000  0.75700000  1.0
  Br  Br5  1  0.39650000  0.89650000  0.24300000  1.0
  Br  Br6  1  0.10350000  0.39650000  0.75700000  1.0
  Br  Br7  1  0.10670000  0.83430000  0.74700000  1.0
  Br  Br8  1  0.60350000  0.10350000  0.24300000  1.0
  Br  Br9  1  0.83430000  0.89330000  0.25300000  1.0
  Br  Br10  1  0.89330000  0.16570000  0.74700000  1.0
  Br  Br11  1  0.66570000  0.39330000  0.74700000  1.0
  Br  Br12  1  0.60670000  0.66570000  0.25300000  1.0
  Br  Br13  1  0.16570000  0.10670000  0.25300000  1.0
  Br  Br14  1  0.39330000  0.33430000  0.25300000  1.0
  Br  Br15  1  0.33430000  0.60670000  0.74700000  1.0
  O  O16  1  0.62460000  0.87540000  0.75900000  1.0
  O  O17  1  0.12460000  0.62460000  0.24100000  1.0
  O  O18  1  0.37540000  0.12460000  0.75900000  1.0
  O  O19  1  0.87540000  0.37540000  0.24100000  1.0
