# generated using pymatgen
data_SiO2
_symmetry_space_group_name_H-M   'P 1'
_cell_length_a   4.73050000
_cell_length_b   5.71159112
_cell_length_c   5.71159112
_cell_angle_alpha   97.98646783
_cell_angle_beta   90.00000000
_cell_angle_gamma   90.00000000
_symmetry_Int_Tables_number   1
_chemical_formula_structural   SiO2
_chemical_formula_sum   'Si4 O8'
_cell_volume   152.82290288
_cell_formula_units_Z   4
loop_
 _symmetry_equiv_pos_site_id
 _symmetry_equiv_pos_as_xyz
  1  'x, y, z'
loop_
 _atom_site_type_symbol
 _atom_site_label
 _atom_site_symmetry_multiplicity
 _atom_site_fract_x
 _atom_site_fract_y
 _atom_site_fract_z
 _atom_site_occupancy
  Si  Si8  1  0.35535000  0.95556000  0.65062000  1.0
  Si  Si9  1  0.85535000  0.04444000  0.34938000  1.0
  Si  Si10  1  0.14465000  0.34938000  0.04444000  1.0
  Si  Si11  1  0.64465000  0.65062000  0.95556000  1.0
  O  O0  1  0.41254000  0.52469000  0.10615000  1.0
  O  O1  1  0.58746000  0.10615000  0.52469000  1.0
  O  O2  1  0.00000000  0.28685000  0.28685000  1.0
  O  O3  1  0.91254000  0.47531000  0.89385000  1.0
  O  O4  1  0.08746000  0.89385000  0.47531000  1.0
  O  O5  1  0.25000000  0.10526000  0.89474000  1.0
  O  O6  1  0.50000000  0.71315000  0.71315000  1.0
  O  O7  1  0.75000000  0.89474000  0.10526000  1.0
