# generated using pymatgen
data_K3Ta3(BO6)2
_symmetry_space_group_name_H-M   'P 1'
_cell_length_a   8.78158000
_cell_length_b   8.78158000
_cell_length_c   3.89902000
_cell_angle_alpha   90.00000000
_cell_angle_beta   90.00000000
_cell_angle_gamma   120.00000000
_symmetry_Int_Tables_number   1
_chemical_formula_structural   K3Ta3(BO6)2
_chemical_formula_sum   'K3 Ta3 B2 O12'
_cell_volume   260.39426729
_cell_formula_units_Z   1
loop_
 _symmetry_equiv_pos_site_id
 _symmetry_equiv_pos_as_xyz
  1  'x, y, z'
loop_
 _atom_site_type_symbol
 _atom_site_label
 _atom_site_symmetry_multiplicity
 _atom_site_fract_x
 _atom_site_fract_y
 _atom_site_fract_z
 _atom_site_occupancy
  K  K0  1  0.40430001  0.00000000  0.50000000  1.0
  K  K1  1  0.59569999  0.59569999  0.50000000  1.0
  K  K2  1  0.00000000  0.40430001  0.50000000  1.0
  Ta  Ta3  1  0.75363000  0.00000000  0.00000000  1.0
  Ta  Ta4  1  0.24637000  0.24637000  -0.00000000  1.0
  Ta  Ta5  1  -0.00000000  0.75363000  -0.00000000  1.0
  B  B6  1  0.33333333  0.66666667  0.00000000  1.0
  B  B7  1  0.66666667  0.33333333  0.00000000  1.0
  O  O8  1  0.81280001  0.49650001  -0.00000000  1.0
  O  O9  1  0.49650001  0.81280001  -0.00000000  1.0
  O  O10  1  0.18719999  0.68370000  0.00000000  1.0
  O  O11  1  0.31630000  0.50349999  -0.00000000  1.0
  O  O12  1  0.50349999  0.31630000  0.00000000  1.0
  O  O13  1  0.68370000  0.18719999  -0.00000000  1.0
  O  O14  1  0.73720001  0.00000000  0.50000000  1.0
  O  O15  1  0.26279999  0.26279999  0.50000000  1.0
  O  O16  1  -0.00000000  0.73720001  0.50000000  1.0
  O  O17  1  0.18150001  0.00000000  0.00000000  1.0
  O  O18  1  0.81850000  0.81850000  0.00000000  1.0
  O  O19  1  -0.00000000  0.18150001  -0.00000000  1.0
