# generated using pymatgen
data_BrNO3
_symmetry_space_group_name_H-M   'P 1'
_cell_length_a   4.03200000
_cell_length_b   6.84900000
_cell_length_c   12.01400000
_cell_angle_alpha   90.00000000
_cell_angle_beta   90.00000000
_cell_angle_gamma   90.00000000
_symmetry_Int_Tables_number   1
_chemical_formula_structural   BrNO3
_chemical_formula_sum   'Br4 N4 O12'
_cell_volume   331.76862835
_cell_formula_units_Z   4
loop_
 _symmetry_equiv_pos_site_id
 _symmetry_equiv_pos_as_xyz
  1  'x, y, z'
loop_
 _atom_site_type_symbol
 _atom_site_label
 _atom_site_symmetry_multiplicity
 _atom_site_fract_x
 _atom_site_fract_y
 _atom_site_fract_z
 _atom_site_occupancy
  Br  Br0  1  0.22624000  0.95937000  0.76483000  1.0
  Br  Br1  1  0.72624000  0.54063000  0.23517000  1.0
  Br  Br2  1  0.77376000  0.45937000  0.73517000  1.0
  Br  Br3  1  0.27376000  0.04063000  0.26483000  1.0
  N  N4  1  0.15950000  0.98480000  0.53720000  1.0
  N  N5  1  0.65950000  0.51520000  0.46280000  1.0
  N  N6  1  0.84050000  0.48480000  0.96280000  1.0
  N  N7  1  0.34050000  0.01520000  0.03720000  1.0
  O  O8  1  0.12750000  0.89620000  0.04880000  1.0
  O  O9  1  0.62750000  0.60380000  0.95120000  1.0
  O  O10  1  0.87250000  0.39620000  0.45120000  1.0
  O  O11  1  0.37250000  0.10380000  0.54880000  1.0
  O  O12  1  0.47080000  0.11330000  0.13110000  1.0
  O  O13  1  0.97080000  0.38670000  0.86890000  1.0
  O  O14  1  0.52920000  0.61330000  0.36890000  1.0
  O  O15  1  0.02920000  0.88670000  0.63110000  1.0
  O  O16  1  0.47780000  0.07120000  0.95330000  1.0
  O  O17  1  0.97780000  0.42880000  0.04670000  1.0
  O  O18  1  0.52220000  0.57120000  0.54670000  1.0
  O  O19  1  0.02220000  0.92880000  0.45330000  1.0
