# generated using pymatgen
data_PCl3O
_symmetry_space_group_name_H-M   'P 1'
_cell_length_a   9.18500000
_cell_length_b   5.74900000
_cell_length_c   9.32600000
_cell_angle_alpha   90.00000000
_cell_angle_beta   90.00000000
_cell_angle_gamma   90.00000000
_symmetry_Int_Tables_number   1
_chemical_formula_structural   PCl3O
_chemical_formula_sum   'P4 Cl12 O4'
_cell_volume   492.45537319
_cell_formula_units_Z   4
loop_
 _symmetry_equiv_pos_site_id
 _symmetry_equiv_pos_as_xyz
  1  'x, y, z'
loop_
 _atom_site_type_symbol
 _atom_site_label
 _atom_site_symmetry_multiplicity
 _atom_site_fract_x
 _atom_site_fract_y
 _atom_site_fract_z
 _atom_site_occupancy
  P  P0  1  0.18290000  0.13020000  0.75340000  1.0
  P  P1  1  0.81710000  0.86980000  0.25340000  1.0
  P  P2  1  0.68290000  0.36980000  0.75340000  1.0
  P  P3  1  0.31710000  0.63020000  0.25340000  1.0
  Cl  Cl4  1  0.35920000  0.82860000  0.42340000  1.0
  Cl  Cl5  1  0.64080000  0.17140000  0.92340000  1.0
  Cl  Cl6  1  0.85920000  0.67140000  0.42340000  1.0
  Cl  Cl7  1  0.14080000  0.32860000  0.92340000  1.0
  Cl  Cl8  1  0.01760000  0.91290000  0.75000000  1.0
  Cl  Cl9  1  0.98240000  0.08710000  0.25000000  1.0
  Cl  Cl10  1  0.51760000  0.58710000  0.75000000  1.0
  Cl  Cl11  1  0.48240000  0.41290000  0.25000000  1.0
  Cl  Cl12  1  0.15310000  0.33770000  0.58760000  1.0
  Cl  Cl13  1  0.84690000  0.66230000  0.08760000  1.0
  Cl  Cl14  1  0.65310000  0.16230000  0.58760000  1.0
  Cl  Cl15  1  0.34690000  0.83770000  0.08760000  1.0
  O  O16  1  0.32350000  0.01680000  0.77080000  1.0
  O  O17  1  0.67650000  0.98320000  0.27080000  1.0
  O  O18  1  0.82350000  0.48320000  0.77080000  1.0
  O  O19  1  0.17650000  0.51680000  0.27080000  1.0
