# generated using pymatgen
data_K2Sr(PO3)4
_symmetry_space_group_name_H-M   'P 1'
_cell_length_a   7.31923717
_cell_length_b   7.31923717
_cell_length_c   7.31923717
_cell_angle_alpha   91.98627823
_cell_angle_beta   118.85992465
_cell_angle_gamma   118.85992465
_symmetry_Int_Tables_number   1
_chemical_formula_structural   K2Sr(PO3)4
_chemical_formula_sum   'K2 Sr1 P4 O12'
_cell_volume   281.85146897
_cell_formula_units_Z   1
loop_
 _symmetry_equiv_pos_site_id
 _symmetry_equiv_pos_as_xyz
  1  'x, y, z'
loop_
 _atom_site_type_symbol
 _atom_site_label
 _atom_site_symmetry_multiplicity
 _atom_site_fract_x
 _atom_site_fract_y
 _atom_site_fract_z
 _atom_site_occupancy
  K  K0  1  0.00000000  0.67200000  0.67200000  1.0
  K  K1  1  0.00000000  0.32800000  0.32800000  1.0
  Sr  Sr18  1  0.50000000  0.25000000  0.75000000  1.0
  P  P14  1  0.37100000  0.12400000  0.18700000  1.0
  P  P15  1  0.06300000  0.24700000  0.87600000  1.0
  P  P16  1  0.93700000  0.81300000  0.18400000  1.0
  P  P17  1  0.62900000  0.81600000  0.75300000  1.0
  O  O2  1  0.75400000  0.88000000  0.00600000  1.0
  O  O3  1  0.24600000  0.25200000  0.12600000  1.0
  O  O4  1  0.87400000  0.99400000  0.74800000  1.0
  O  O5  1  0.80800000  0.56700000  0.14500000  1.0
  O  O6  1  0.19200000  0.33700000  0.75900000  1.0
  O  O7  1  0.42900000  0.08000000  0.02900000  1.0
  O  O8  1  0.57100000  0.60000000  0.65100000  1.0
  O  O9  1  0.94900000  0.34900000  0.92000000  1.0
  O  O10  1  0.57800000  0.24100000  0.43300000  1.0
  O  O11  1  0.05100000  0.97100000  0.40000000  1.0
  O  O12  1  0.12600000  0.87400000  0.12000000  1.0
  O  O13  1  0.42200000  0.85500000  0.66300000  1.0
