# generated using pymatgen
data_Sb2WO6
_symmetry_space_group_name_H-M   'P 1'
_cell_length_a   5.10484473
_cell_length_b   5.65280354
_cell_length_c   9.28931900
_cell_angle_alpha   95.77358938
_cell_angle_beta   90.03056242
_cell_angle_gamma   90.02939051
_symmetry_Int_Tables_number   1
_chemical_formula_structural   Sb2WO6
_chemical_formula_sum   'Sb4 W2 O12'
_cell_volume   266.69905174
_cell_formula_units_Z   2
loop_
 _symmetry_equiv_pos_site_id
 _symmetry_equiv_pos_as_xyz
  1  'x, y, z'
loop_
 _atom_site_type_symbol
 _atom_site_label
 _atom_site_symmetry_multiplicity
 _atom_site_fract_x
 _atom_site_fract_y
 _atom_site_fract_z
 _atom_site_occupancy
  Sb  Sb0  1  0.44057700  0.85154500  0.66645900  1.0
  Sb  Sb1  1  0.05593600  0.35322000  0.66585800  1.0
  Sb  Sb2  1  0.94015500  0.63266500  0.33178900  1.0
  Sb  Sb3  1  0.55636100  0.13070500  0.33158800  1.0
  W  W4  1  0.04371600  0.99639800  0.00845100  1.0
  W  W5  1  0.54343300  0.48347700  0.98950000  1.0
  O  O6  1  0.77724000  0.70666800  0.94365700  1.0
  O  O7  1  0.73058800  0.21213200  0.94129800  1.0
  O  O8  1  0.23078400  0.26866000  0.05618900  1.0
  O  O9  1  0.27730200  0.77463800  0.05534800  1.0
  O  O10  1  0.85483000  0.00221400  0.18656800  1.0
  O  O11  1  0.13240400  0.97437100  0.80846500  1.0
  O  O12  1  0.63320600  0.50511000  0.18980600  1.0
  O  O13  1  0.35519300  0.47981000  0.81158500  1.0
  O  O14  1  0.18522900  0.62888800  0.55643400  1.0
  O  O15  1  0.31867400  0.13240900  0.56147200  1.0
  O  O16  1  0.68450700  0.85465600  0.44158500  1.0
  O  O17  1  0.81886500  0.35143500  0.43705000  1.0
