# generated using pymatgen
data_CsB3PbF12
_symmetry_space_group_name_H-M   'P 1'
_cell_length_a   6.71139951
_cell_length_b   6.78975001
_cell_length_c   6.78975001
_cell_angle_alpha   95.80811736
_cell_angle_beta   90.50385736
_cell_angle_gamma   90.50385736
_symmetry_Int_Tables_number   1
_chemical_formula_structural   CsB3PbF12
_chemical_formula_sum   'Cs1 B3 Pb1 F12'
_cell_volume   307.78542259
_cell_formula_units_Z   1
loop_
 _symmetry_equiv_pos_site_id
 _symmetry_equiv_pos_as_xyz
  1  'x, y, z'
loop_
 _atom_site_type_symbol
 _atom_site_label
 _atom_site_symmetry_multiplicity
 _atom_site_fract_x
 _atom_site_fract_y
 _atom_site_fract_z
 _atom_site_occupancy
  Cs  Cs3  1  0.57851000  0.50777100  0.50777100  1.0
  B  B0  1  0.49678300  0.99070300  0.99070300  1.0
  B  B1  1  0.99202800  0.49463300  0.02179800  1.0
  B  B2  1  0.99202800  0.02179800  0.49463300  1.0
  Pb  Pb16  1  0.05138800  0.97108700  0.97108700  1.0
  F  F4  1  0.40362200  0.16341700  0.93746200  1.0
  F  F5  1  0.40362200  0.93746200  0.16341700  1.0
  F  F6  1  0.46908000  0.83756800  0.83756800  1.0
  F  F7  1  0.70172900  0.03049000  0.03049000  1.0
  F  F8  1  0.89174000  0.64177000  0.91853500  1.0
  F  F9  1  0.89337800  0.47045100  0.19637900  1.0
  F  F10  1  0.98185300  0.31391400  0.89431700  1.0
  F  F11  1  0.18865000  0.55622100  0.05348300  1.0
  F  F12  1  0.89337800  0.19637900  0.47045100  1.0
  F  F13  1  0.89174000  0.91853500  0.64177000  1.0
  F  F14  1  0.98185300  0.89431700  0.31391400  1.0
  F  F15  1  0.18865000  0.05348300  0.55622100  1.0
