# generated using pymatgen
data_V2O5
_symmetry_space_group_name_H-M   'P 1'
_cell_length_a   5.65077116
_cell_length_b   5.67928355
_cell_length_c   10.24455662
_cell_angle_alpha   98.19524709
_cell_angle_beta   98.08895246
_cell_angle_gamma   118.61254888
_symmetry_Int_Tables_number   1
_chemical_formula_structural   V2O5
_chemical_formula_sum   'V4 O10'
_cell_volume   277.28931162
_cell_formula_units_Z   2
loop_
 _symmetry_equiv_pos_site_id
 _symmetry_equiv_pos_as_xyz
  1  'x, y, z'
loop_
 _atom_site_type_symbol
 _atom_site_label
 _atom_site_symmetry_multiplicity
 _atom_site_fract_x
 _atom_site_fract_y
 _atom_site_fract_z
 _atom_site_occupancy
  V  V0  1  0.73308859  0.89273601  0.15169559  1.0
  V  V1  1  0.33120993  0.99333993  0.34859257  1.0
  V  V2  1  0.63921001  0.98698498  0.65164033  1.0
  V  V3  1  0.73785757  0.58391094  0.84860758  1.0
  O  O4  1  0.62524657  0.62772971  0.00075715  1.0
  O  O5  1  0.88040884  0.18960612  0.11637468  1.0
  O  O6  1  0.44954375  0.85192947  0.22415401  1.0
  O  O7  1  0.97475326  0.87626496  0.27653623  1.0
  O  O8  1  0.51043082  0.32516691  0.38368904  1.0
  O  O9  1  0.37579608  0.87861745  0.49944973  1.0
  O  O10  1  0.93922582  0.12969345  0.61687120  1.0
  O  O11  1  0.60323078  0.71164065  0.72780151  1.0
  O  O12  1  0.62124965  0.23151152  0.77269835  1.0
  O  O13  1  0.07113231  0.75954789  0.88292302  1.0
