# generated using pymatgen
data_BaAl2Sb2O7
_symmetry_space_group_name_H-M   'P 1'
_cell_length_a   5.45500000
_cell_length_b   5.45500000
_cell_length_c   8.52725437
_cell_angle_alpha   71.34573712
_cell_angle_beta   71.34573712
_cell_angle_gamma   60.00000000
_symmetry_Int_Tables_number   1
_chemical_formula_structural   BaAl2Sb2O7
_chemical_formula_sum   'Ba1 Al2 Sb2 O7'
_cell_volume   204.21276101
_cell_formula_units_Z   1
loop_
 _symmetry_equiv_pos_site_id
 _symmetry_equiv_pos_as_xyz
  1  'x, y, z'
loop_
 _atom_site_type_symbol
 _atom_site_label
 _atom_site_symmetry_multiplicity
 _atom_site_fract_x
 _atom_site_fract_y
 _atom_site_fract_z
 _atom_site_occupancy
  Ba  Ba2  1  0.50000000  0.50000000  0.50000000  1.0
  Al  Al0  1  0.07220000  0.07220000  0.78340000  1.0
  Al  Al1  1  0.92780000  0.92780000  0.21660000  1.0
  Sb  Sb10  1  0.27918000  0.27918000  0.16246000  1.0
  Sb  Sb11  1  0.72082000  0.72082000  0.83754000  1.0
  O  O3  1  0.43140000  0.01940000  0.70780000  1.0
  O  O4  1  0.01940000  0.84140000  0.70780000  1.0
  O  O5  1  0.84140000  0.43140000  0.70780000  1.0
  O  O6  1  0.15860000  0.98060000  0.29220000  1.0
  O  O7  1  0.98060000  0.56860000  0.29220000  1.0
  O  O8  1  0.00000000  0.00000000  0.00000000  1.0
  O  O9  1  0.56860000  0.15860000  0.29220000  1.0
