# generated using pymatgen
data_CuBrO2
_symmetry_space_group_name_H-M   'P 1'
_cell_length_a   3.66474007
_cell_length_b   6.79469000
_cell_length_c   6.90165000
_cell_angle_alpha   70.45422931
_cell_angle_beta   88.92329368
_cell_angle_gamma   86.69762750
_symmetry_Int_Tables_number   1
_chemical_formula_structural   CuBrO2
_chemical_formula_sum   'Cu2 Br2 O4'
_cell_volume   161.68415561
_cell_formula_units_Z   2
loop_
 _symmetry_equiv_pos_site_id
 _symmetry_equiv_pos_as_xyz
  1  'x, y, z'
loop_
 _atom_site_type_symbol
 _atom_site_label
 _atom_site_symmetry_multiplicity
 _atom_site_fract_x
 _atom_site_fract_y
 _atom_site_fract_z
 _atom_site_occupancy
  Cu  Cu0  1  0.49503000  0.08774000  0.68453000  1.0
  Cu  Cu1  1  0.04712000  0.75503000  0.33104000  1.0
  Br  Br2  1  0.56592000  0.61928000  0.18548000  1.0
  Br  Br3  1  0.97574000  0.23085000  0.82317000  1.0
  O  O4  1  0.80122000  0.09313000  0.45403000  1.0
  O  O5  1  0.22326000  0.85565000  0.67963000  1.0
  O  O6  1  0.72153000  0.98383000  0.33902000  1.0
  O  O7  1  0.33414000  0.74624000  0.56465000  1.0
