# generated using pymatgen
data_PtF4
_symmetry_space_group_name_H-M   'P 1'
_cell_length_a   5.45022018
_cell_length_b   5.45022018
_cell_length_c   5.58110751
_cell_angle_alpha   105.55436375
_cell_angle_beta   105.55436375
_cell_angle_gamma   116.79601478
_symmetry_Int_Tables_number   1
_chemical_formula_structural   PtF4
_chemical_formula_sum   'Pt2 F8'
_cell_volume   127.13992380
_cell_formula_units_Z   2
loop_
 _symmetry_equiv_pos_site_id
 _symmetry_equiv_pos_as_xyz
  1  'x, y, z'
loop_
 _atom_site_type_symbol
 _atom_site_label
 _atom_site_symmetry_multiplicity
 _atom_site_fract_x
 _atom_site_fract_y
 _atom_site_fract_z
 _atom_site_occupancy
  Pt  Pt8  1  0.75000000  0.75000000  0.00000000  1.0
  Pt  Pt9  1  0.00000000  0.50000000  0.50000000  1.0
  F  F0  1  0.58410000  0.30590000  0.32600000  1.0
  F  F1  1  0.97990000  0.25810000  0.67400000  1.0
  F  F2  1  0.99450000  0.22130000  0.18180000  1.0
  F  F3  1  0.03950000  0.81270000  0.81820000  1.0
  F  F4  1  0.47130000  0.74450000  0.68180000  1.0
  F  F5  1  0.06270000  0.78950000  0.31820000  1.0
  F  F6  1  0.50810000  0.72990000  0.17400000  1.0
  F  F7  1  0.55590000  0.33410000  0.82600000  1.0
