# generated using pymatgen
data_S(ClO)2
_symmetry_space_group_name_H-M   'P 1'
_cell_length_a   5.42200000
_cell_length_b   5.83590139
_cell_length_c   8.17509494
_cell_angle_alpha   81.13836675
_cell_angle_beta   70.63305318
_cell_angle_gamma   62.31965107
_symmetry_Int_Tables_number   1
_chemical_formula_structural   S(ClO)2
_chemical_formula_sum   'S2 Cl4 O4'
_cell_volume   216.11116056
_cell_formula_units_Z   2
loop_
 _symmetry_equiv_pos_site_id
 _symmetry_equiv_pos_as_xyz
  1  'x, y, z'
loop_
 _atom_site_type_symbol
 _atom_site_label
 _atom_site_symmetry_multiplicity
 _atom_site_fract_x
 _atom_site_fract_y
 _atom_site_fract_z
 _atom_site_occupancy
  S  S8  1  0.75000000  0.00000000  0.00000000  1.0
  S  S9  1  0.50000000  0.50000000  0.50000000  1.0
  Cl  Cl0  1  0.69734000  0.73552000  0.90908000  1.0
  Cl  Cl1  1  0.35642000  0.23552000  0.59092000  1.0
  Cl  Cl2  1  0.18286000  0.76448000  0.40908000  1.0
  Cl  Cl3  1  0.34194000  0.26448000  0.09092000  1.0
  O  O4  1  0.85970000  0.88980000  0.14300000  1.0
  O  O5  1  0.75270000  0.38980000  0.35700000  1.0
  O  O6  1  0.89250000  0.11020000  0.85700000  1.0
  O  O7  1  0.49950000  0.61020000  0.64300000  1.0
