# generated using pymatgen
data_KNiIO6
_symmetry_space_group_name_H-M   'P 1'
_cell_length_a   5.03572690
_cell_length_b   5.03572690
_cell_length_c   6.11835600
_cell_angle_alpha   90.00000000
_cell_angle_beta   90.00000000
_cell_angle_gamma   120.00000000
_symmetry_Int_Tables_number   1
_chemical_formula_structural   KNiIO6
_chemical_formula_sum   'K1 Ni1 I1 O6'
_cell_volume   134.36610040
_cell_formula_units_Z   1
loop_
 _symmetry_equiv_pos_site_id
 _symmetry_equiv_pos_as_xyz
  1  'x, y, z'
loop_
 _atom_site_type_symbol
 _atom_site_label
 _atom_site_symmetry_multiplicity
 _atom_site_fract_x
 _atom_site_fract_y
 _atom_site_fract_z
 _atom_site_occupancy
  K  K0  1  0.00000000  0.00000000  0.00013100  1.0
  Ni  Ni1  1  0.33333333  0.66666667  0.49979300  1.0
  I  I2  1  0.66666667  0.33333333  0.50010300  1.0
  O  O3  1  0.37607700  0.99786500  0.67502000  1.0
  O  O4  1  0.00213500  0.37821200  0.67502000  1.0
  O  O5  1  0.62178800  0.62392300  0.67502000  1.0
  O  O6  1  0.00206400  0.62391000  0.32497100  1.0
  O  O7  1  0.62184600  0.99793600  0.32497100  1.0
  O  O8  1  0.37609000  0.37815400  0.32497100  1.0
