# generated using pymatgen
data_Ga2Se3
_symmetry_space_group_name_H-M   'P 1'
_cell_length_a   6.66000000
_cell_length_b   6.70965908
_cell_length_c   6.66000000
_cell_angle_alpha   81.12071437
_cell_angle_beta   71.88000000
_cell_angle_gamma   60.24452698
_symmetry_Int_Tables_number   1
_chemical_formula_structural   Ga2Se3
_chemical_formula_sum   'Ga4 Se6'
_cell_volume   245.55801720
_cell_formula_units_Z   2
loop_
 _symmetry_equiv_pos_site_id
 _symmetry_equiv_pos_as_xyz
  1  'x, y, z'
loop_
 _atom_site_type_symbol
 _atom_site_label
 _atom_site_symmetry_multiplicity
 _atom_site_fract_x
 _atom_site_fract_y
 _atom_site_fract_z
 _atom_site_occupancy
  Ga  Ga0  1  0.21310000  0.51360000  0.50330000  1.0
  Ga  Ga1  1  0.72670000  0.48640000  0.00330000  1.0
  Ga  Ga2  1  0.57980000  0.84040000  0.50000000  1.0
  Ga  Ga3  1  0.42020000  0.15960000  0.00000000  1.0
  Se  Se4  1  0.41400000  0.83640000  0.88840000  1.0
  Se  Se5  1  0.25040000  0.16360000  0.38840000  1.0
  Se  Se6  1  0.94810000  0.84140000  0.36320000  1.0
  Se  Se7  1  0.78950000  0.15860000  0.86320000  1.0
  Se  Se8  1  0.61610000  0.48560000  0.39270000  1.0
  Se  Se9  1  0.10170000  0.51440000  0.89270000  1.0
