# generated using pymatgen
data_KHO
_symmetry_space_group_name_H-M   'P 1'
_cell_length_a   3.95000000
_cell_length_b   4.03000000
_cell_length_c   6.03246426
_cell_angle_alpha   90.00000000
_cell_angle_beta   109.11075236
_cell_angle_gamma   90.00000000
_symmetry_Int_Tables_number   1
_chemical_formula_structural   KHO
_chemical_formula_sum   'K2 H2 O2'
_cell_volume   90.73545006
_cell_formula_units_Z   2
loop_
 _symmetry_equiv_pos_site_id
 _symmetry_equiv_pos_as_xyz
  1  'x, y, z'
loop_
 _atom_site_type_symbol
 _atom_site_label
 _atom_site_symmetry_multiplicity
 _atom_site_fract_x
 _atom_site_fract_y
 _atom_site_fract_z
 _atom_site_occupancy
  K  K2  1  0.36000000  0.75000000  0.72000000  1.0
  K  K3  1  0.64000000  0.25000000  0.28000000  1.0
  H  H0  1  0.04161700  0.90541500  0.08323400  1.0
  H  H1  1  0.95838300  0.40541500  0.91676600  1.0
  O  O4  1  0.11000000  0.75000000  0.22000000  1.0
  O  O5  1  0.89000000  0.25000000  0.78000000  1.0
