# generated using pymatgen
data_P2O5
_symmetry_space_group_name_H-M   'P 1'
_cell_length_a   4.84580231
_cell_length_b   4.84580231
_cell_length_c   8.56384260
_cell_angle_alpha   99.59470108
_cell_angle_beta   99.59470108
_cell_angle_gamma   114.25958645
_symmetry_Int_Tables_number   1
_chemical_formula_structural   P2O5
_chemical_formula_sum   'P4 O10'
_cell_volume   174.47683030
_cell_formula_units_Z   2
loop_
 _symmetry_equiv_pos_site_id
 _symmetry_equiv_pos_as_xyz
  1  'x, y, z'
loop_
 _atom_site_type_symbol
 _atom_site_label
 _atom_site_symmetry_multiplicity
 _atom_site_fract_x
 _atom_site_fract_y
 _atom_site_fract_z
 _atom_site_occupancy
  P  P10  1  0.06100000  0.89500000  0.15000000  1.0
  P  P11  1  0.74500000  0.91100000  0.85000000  1.0
  P  P12  1  0.14500000  0.81100000  0.65000000  1.0
  P  P13  1  0.16100000  0.49500000  0.35000000  1.0
  O  O0  1  0.35200000  0.03000000  0.11600000  1.0
  O  O1  1  0.91400000  0.23600000  0.88400000  1.0
  O  O2  1  0.28000000  0.10200000  0.61600000  1.0
  O  O3  1  0.48600000  0.66400000  0.38400000  1.0
  O  O4  1  0.00000000  0.50000000  0.50000000  1.0
  O  O5  1  0.75000000  0.75000000  0.00000000  1.0
  O  O6  1  0.97500000  0.11900000  0.27200000  1.0
  O  O7  1  0.84700000  0.70300000  0.72800000  1.0
  O  O8  1  0.36900000  0.72500000  0.77200000  1.0
  O  O9  1  0.95300000  0.59700000  0.22800000  1.0
