# generated using pymatgen
data_Na3ReO5
_symmetry_space_group_name_H-M   'P 1'
_cell_length_a   5.54390000
_cell_length_b   5.54390000
_cell_length_c   13.57950000
_cell_angle_alpha   90.00000000
_cell_angle_beta   90.00000000
_cell_angle_gamma   120.00000000
_symmetry_Int_Tables_number   1
_chemical_formula_structural   Na3ReO5
_chemical_formula_sum   'Na9 Re3 O15'
_cell_volume   361.44746818
_cell_formula_units_Z   3
loop_
 _symmetry_equiv_pos_site_id
 _symmetry_equiv_pos_as_xyz
  1  'x, y, z'
loop_
 _atom_site_type_symbol
 _atom_site_label
 _atom_site_symmetry_multiplicity
 _atom_site_fract_x
 _atom_site_fract_y
 _atom_site_fract_z
 _atom_site_occupancy
  Na  Na0  1  0.29993333  0.26136667  0.91696667  1.0
  Na  Na1  1  0.96143333  0.70006667  0.58363334  1.0
  Na  Na2  1  0.73863333  0.03856667  0.25030000  1.0
  Na  Na3  1  0.34943333  0.38986667  0.41886667  1.0
  Na  Na4  1  0.04043333  0.65056667  0.08553334  1.0
  Na  Na5  1  0.61013333  0.95956667  0.75220000  1.0
  Na  Na6  1  0.65113333  0.04346667  0.50426667  1.0
  Na  Na7  1  0.39233333  0.34886667  0.17093334  1.0
  Na  Na8  1  0.95653333  0.60766667  0.83760000  1.0
  Re  Re9  1  0.66583333  0.95746667  0.00366667  1.0
  Re  Re10  1  0.29163333  0.33416667  0.67033334  1.0
  Re  Re11  1  0.04253333  0.70836667  0.33700000  1.0
  O  O12  1  0.84363333  0.84326667  0.40236667  1.0
  O  O13  1  0.99963333  0.15636667  0.06903334  1.0
  O  O14  1  0.15673333  0.00036667  0.73570000  1.0
  O  O15  1  0.66863333  0.63826667  0.00556667  1.0
  O  O16  1  0.96963333  0.33136667  0.67223334  1.0
  O  O17  1  0.36173333  0.03036667  0.33890000  1.0
  O  O18  1  0.33613333  0.81886667  0.94076667  1.0
  O  O19  1  0.48273333  0.66386667  0.60743334  1.0
  O  O20  1  0.18113333  0.51726667  0.27410000  1.0
  O  O21  1  0.99233333  0.49546667  0.44416667  1.0
  O  O22  1  0.50313333  0.00766667  0.11083334  1.0
  O  O23  1  0.50453333  0.49686667  0.77750000  1.0
  O  O24  1  0.82533333  0.17986667  0.90030000  1.0
  O  O25  1  0.82013333  0.64546667  0.23363333  1.0
  O  O26  1  0.35453333  0.17466667  0.56696667  1.0
