# generated using pymatgen
data_NaCaAlF6
_symmetry_space_group_name_H-M   'P 1'
_cell_length_a   8.92950000
_cell_length_b   8.92950000
_cell_length_c   5.06420000
_cell_angle_alpha   90.00000000
_cell_angle_beta   90.00000000
_cell_angle_gamma   120.00000000
_symmetry_Int_Tables_number   1
_chemical_formula_structural   NaCaAlF6
_chemical_formula_sum   'Na3 Ca3 Al3 F18'
_cell_volume   349.70010589
_cell_formula_units_Z   3
loop_
 _symmetry_equiv_pos_site_id
 _symmetry_equiv_pos_as_xyz
  1  'x, y, z'
loop_
 _atom_site_type_symbol
 _atom_site_label
 _atom_site_symmetry_multiplicity
 _atom_site_fract_x
 _atom_site_fract_y
 _atom_site_fract_z
 _atom_site_occupancy
  Na  Na0  1  0.00000000  0.71450000  0.50000000  1.0
  Na  Na1  1  0.71450000  0.00000000  0.50000000  1.0
  Na  Na2  1  0.28550000  0.28550000  0.50000000  1.0
  Ca  Ca3  1  0.62800000  0.62800000  0.00000000  1.0
  Ca  Ca4  1  0.00000000  0.37200000  0.00000000  1.0
  Ca  Ca5  1  0.37200000  0.00000000  0.00000000  1.0
  Al  Al6  1  0.66666667  0.33333333  0.50100000  1.0
  Al  Al7  1  0.33333333  0.66666667  0.49900000  1.0
  Al  Al8  1  0.00000000  0.00000000  0.00000000  1.0
  F  F9  1  0.77710000  0.25170000  0.29700000  1.0
  F  F10  1  0.74830000  0.52540000  0.29700000  1.0
  F  F11  1  0.47460000  0.22290000  0.29700000  1.0
  F  F12  1  0.52540000  0.74830000  0.70300000  1.0
  F  F13  1  0.22290000  0.47460000  0.70300000  1.0
  F  F14  1  0.25170000  0.77710000  0.70300000  1.0
  F  F15  1  0.41010000  0.55410000  0.29700000  1.0
  F  F16  1  0.44590000  0.85600000  0.29700000  1.0
  F  F17  1  0.14400000  0.58990000  0.29700000  1.0
  F  F18  1  0.91360000  0.10410000  0.79600000  1.0
  F  F19  1  0.89590000  0.80950000  0.79600000  1.0
  F  F20  1  0.19050000  0.08640000  0.79600000  1.0
  F  F21  1  0.80950000  0.89590000  0.20400000  1.0
  F  F22  1  0.08640000  0.19050000  0.20400000  1.0
  F  F23  1  0.10410000  0.91360000  0.20400000  1.0
  F  F24  1  0.55410000  0.41010000  0.70300000  1.0
  F  F25  1  0.58990000  0.14400000  0.70300000  1.0
  F  F26  1  0.85600000  0.44590000  0.70300000  1.0
