# generated using pymatgen
data_BaTa6O16
_symmetry_space_group_name_H-M   'P 1'
_cell_length_a   3.92434600
_cell_length_b   9.26203421
_cell_length_c   9.26203421
_cell_angle_alpha   111.35161165
_cell_angle_beta   90.00000000
_cell_angle_gamma   90.00000000
_symmetry_Int_Tables_number   1
_chemical_formula_structural   BaTa6O16
_chemical_formula_sum   'Ba1 Ta6 O16'
_cell_volume   313.54460300
_cell_formula_units_Z   1
loop_
 _symmetry_equiv_pos_site_id
 _symmetry_equiv_pos_as_xyz
  1  'x, y, z'
loop_
 _atom_site_type_symbol
 _atom_site_label
 _atom_site_symmetry_multiplicity
 _atom_site_fract_x
 _atom_site_fract_y
 _atom_site_fract_z
 _atom_site_occupancy
  Ba  Ba0  1  0.50000000  0.59972500  0.40027500  1.0
  Ta  Ta17  1  0.00000000  0.00750400  0.99249600  1.0
  Ta  Ta18  1  0.00000000  0.36912400  0.99911600  1.0
  Ta  Ta19  1  0.00000000  0.79434200  0.20565800  1.0
  Ta  Ta20  1  0.00000000  0.24740100  0.37980900  1.0
  Ta  Ta21  1  0.00000000  0.00088400  0.63087600  1.0
  Ta  Ta22  1  0.00000000  0.62019100  0.75259900  1.0
  O  O1  1  0.00000000  0.56848100  0.17621600  1.0
  O  O2  1  0.00000000  0.24697500  0.14896000  1.0
  O  O3  1  0.00000000  0.01768400  0.22748500  1.0
  O  O4  1  0.00000000  0.82378400  0.43151900  1.0
  O  O5  1  0.00000000  0.47721600  0.52278400  1.0
  O  O6  1  0.00000000  0.16353300  0.53897700  1.0
  O  O7  1  0.00000000  0.85104000  0.75302500  1.0
  O  O8  1  0.00000000  0.46102300  0.83646700  1.0
  O  O9  1  0.00000000  0.14320900  0.85679100  1.0
  O  O10  1  0.00000000  0.77251500  0.98231600  1.0
  O  O11  1  0.50000000  0.27468000  0.36866100  1.0
  O  O12  1  0.50000000  0.37157800  0.00248400  1.0
  O  O13  1  0.50000000  0.00337100  0.99662900  1.0
  O  O14  1  0.50000000  0.78688500  0.21311500  1.0
  O  O15  1  0.50000000  0.99751600  0.62842200  1.0
  O  O16  1  0.50000000  0.63133900  0.72532000  1.0
