# generated using pymatgen
data_K3V5O14
_symmetry_space_group_name_H-M   'P 1'
_cell_length_a   8.75412790
_cell_length_b   8.75412790
_cell_length_c   5.27890600
_cell_angle_alpha   90.00000000
_cell_angle_beta   90.00000000
_cell_angle_gamma   120.00000000
_symmetry_Int_Tables_number   1
_chemical_formula_structural   K3V5O14
_chemical_formula_sum   'K3 V5 O14'
_cell_volume   350.34855883
_cell_formula_units_Z   1
loop_
 _symmetry_equiv_pos_site_id
 _symmetry_equiv_pos_as_xyz
  1  'x, y, z'
loop_
 _atom_site_type_symbol
 _atom_site_label
 _atom_site_symmetry_multiplicity
 _atom_site_fract_x
 _atom_site_fract_y
 _atom_site_fract_z
 _atom_site_occupancy
  K  K0  1  0.60707700  0.00000000  0.00336900  1.0
  K  K1  1  -0.00000000  0.60707700  0.00336900  1.0
  K  K2  1  0.39292300  0.39292300  0.00336900  1.0
  V  V3  1  0.33333333  0.66666667  0.47245800  1.0
  V  V4  1  0.66666667  0.33333333  0.47245800  1.0
  V  V5  1  0.22664300  0.00000000  0.47129700  1.0
  V  V6  1  -0.00000000  0.22664300  0.47129700  1.0
  V  V7  1  0.77335700  0.77335700  0.47129700  1.0
  O  O8  1  0.33333333  0.66666667  0.78602300  1.0
  O  O9  1  0.66666667  0.33333333  0.78602300  1.0
  O  O10  1  0.23784600  0.00000000  0.77867100  1.0
  O  O11  1  -0.00000000  0.23784600  0.77867100  1.0
  O  O12  1  0.76215400  0.76215400  0.77867100  1.0
  O  O13  1  0.83280100  0.00000000  0.39223200  1.0
  O  O14  1  -0.00000000  0.83280100  0.39223200  1.0
  O  O15  1  0.16719900  0.16719900  0.39223200  1.0
  O  O16  1  0.46178400  0.16868200  0.35655600  1.0
  O  O17  1  0.83131800  0.29310200  0.35655600  1.0
  O  O18  1  0.70689800  0.53821600  0.35655600  1.0
  O  O19  1  0.16868200  0.46178400  0.35655600  1.0
  O  O20  1  0.29310200  0.83131800  0.35655600  1.0
  O  O21  1  0.53821600  0.70689800  0.35655600  1.0
