# generated using pymatgen
data_Nb2PbO6
_symmetry_space_group_name_H-M   'P 1'
_cell_length_a   7.18278083
_cell_length_b   7.18278083
_cell_length_c   7.18278083
_cell_angle_alpha   93.93795470
_cell_angle_beta   93.93795470
_cell_angle_gamma   93.93795470
_symmetry_Int_Tables_number   1
_chemical_formula_structural   Nb2PbO6
_chemical_formula_sum   'Nb6 Pb3 O18'
_cell_volume   367.82453425
_cell_formula_units_Z   3
loop_
 _symmetry_equiv_pos_site_id
 _symmetry_equiv_pos_as_xyz
  1  'x, y, z'
loop_
 _atom_site_type_symbol
 _atom_site_label
 _atom_site_symmetry_multiplicity
 _atom_site_fract_x
 _atom_site_fract_y
 _atom_site_fract_z
 _atom_site_occupancy
  Nb  Nb0  1  0.16540000  0.81510000  0.50820000  1.0
  Nb  Nb1  1  0.81510000  0.16540000  0.50820000  1.0
  Nb  Nb2  1  0.50820000  0.81510000  0.16540000  1.0
  Nb  Nb3  1  0.50820000  0.16540000  0.81510000  1.0
  Nb  Nb4  1  0.81510000  0.50820000  0.16540000  1.0
  Nb  Nb5  1  0.16540000  0.50820000  0.81510000  1.0
  Pb  Pb24  1  0.66890000  0.66890000  0.66890000  1.0
  Pb  Pb25  1  0.35710000  0.35710000  0.35710000  1.0
  Pb  Pb26  1  0.00000000  0.00000000  0.00000000  1.0
  O  O6  1  0.24300000  0.90100000  0.24300000  1.0
  O  O7  1  0.95900000  0.70200000  0.38700000  1.0
  O  O8  1  0.03400000  0.53200000  0.03400000  1.0
  O  O9  1  0.02100000  0.73700000  0.73700000  1.0
  O  O10  1  0.61800000  0.34300000  0.61800000  1.0
  O  O11  1  0.90100000  0.24300000  0.24300000  1.0
  O  O12  1  0.24300000  0.24300000  0.90100000  1.0
  O  O13  1  0.70200000  0.38700000  0.95900000  1.0
  O  O14  1  0.73700000  0.73700000  0.02100000  1.0
  O  O15  1  0.61800000  0.61800000  0.34300000  1.0
  O  O16  1  0.95900000  0.38700000  0.70200000  1.0
  O  O17  1  0.53200000  0.03400000  0.03400000  1.0
  O  O18  1  0.70200000  0.95900000  0.38700000  1.0
  O  O19  1  0.38700000  0.95900000  0.70200000  1.0
  O  O20  1  0.38700000  0.70200000  0.95900000  1.0
  O  O21  1  0.34300000  0.61800000  0.61800000  1.0
  O  O22  1  0.03400000  0.03400000  0.53200000  1.0
  O  O23  1  0.73700000  0.02100000  0.73700000  1.0
