# generated using pymatgen
data_K6CdO4
_symmetry_space_group_name_H-M   'P 1'
_cell_length_a   8.67420000
_cell_length_b   8.67420000
_cell_length_c   6.65540000
_cell_angle_alpha   90.00000000
_cell_angle_beta   90.00000000
_cell_angle_gamma   120.00000000
_symmetry_Int_Tables_number   1
_chemical_formula_structural   K6CdO4
_chemical_formula_sum   'K12 Cd2 O8'
_cell_volume   433.67427076
_cell_formula_units_Z   2
loop_
 _symmetry_equiv_pos_site_id
 _symmetry_equiv_pos_as_xyz
  1  'x, y, z'
loop_
 _atom_site_type_symbol
 _atom_site_label
 _atom_site_symmetry_multiplicity
 _atom_site_fract_x
 _atom_site_fract_y
 _atom_site_fract_z
 _atom_site_occupancy
  K  K0  1  0.53620001  0.07240001  0.14220000  1.0
  K  K1  1  0.46379999  0.53620001  0.64220000  1.0
  K  K2  1  0.92759999  0.46379999  0.14220000  1.0
  K  K3  1  0.53620001  0.46379999  0.14220000  1.0
  K  K4  1  0.14340000  0.85660000  0.97110000  1.0
  K  K5  1  0.28680000  0.14340000  0.47110000  1.0
  K  K6  1  0.07240001  0.53620001  0.64220000  1.0
  K  K7  1  0.85660000  0.71320000  0.47110000  1.0
  K  K8  1  0.85660000  0.14340000  0.47110000  1.0
  K  K9  1  0.71320000  0.85660000  0.97110000  1.0
  K  K10  1  0.14340000  0.28680000  0.97110000  1.0
  K  K11  1  0.46379999  0.92759999  0.64220000  1.0
  Cd  Cd12  1  0.66666667  0.33333333  0.75000000  1.0
  Cd  Cd13  1  0.33333333  0.66666667  0.25000000  1.0
  O  O14  1  0.19270000  0.80730000  0.36060000  1.0
  O  O15  1  0.38540000  0.19270000  0.86060000  1.0
  O  O16  1  0.80730000  0.61460000  0.86060000  1.0
  O  O17  1  0.19270000  0.38540000  0.36060000  1.0
  O  O18  1  0.61460000  0.80730000  0.36060000  1.0
  O  O19  1  0.80730000  0.19270000  0.86060000  1.0
  O  O20  1  0.66666667  0.33333333  0.42070000  1.0
  O  O21  1  0.33333333  0.66666667  0.92070000  1.0
