# generated using pymatgen
data_K2Ti(SiO3)3
_symmetry_space_group_name_H-M   'P 1'
_cell_length_a   7.60853788
_cell_length_b   7.60853788
_cell_length_c   7.60853788
_cell_angle_alpha   82.29067525
_cell_angle_beta   82.29067525
_cell_angle_gamma   82.29067525
_symmetry_Int_Tables_number   1
_chemical_formula_structural   K2Ti(SiO3)3
_chemical_formula_sum   'K4 Ti2 Si6 O18'
_cell_volume   429.49457503
_cell_formula_units_Z   2
loop_
 _symmetry_equiv_pos_site_id
 _symmetry_equiv_pos_as_xyz
  1  'x, y, z'
loop_
 _atom_site_type_symbol
 _atom_site_label
 _atom_site_symmetry_multiplicity
 _atom_site_fract_x
 _atom_site_fract_y
 _atom_site_fract_z
 _atom_site_occupancy
  K  K0  1  0.77419000  0.23031000  0.00394000  1.0
  K  K1  1  0.23031000  0.00394000  0.77419000  1.0
  K  K2  1  0.00394000  0.77419000  0.23031000  1.0
  K  K3  1  0.50597700  0.50597700  0.50597700  1.0
  Ti  Ti28  1  0.77722000  0.77722000  0.77722000  1.0
  Ti  Ti29  1  0.25936300  0.25936300  0.25936300  1.0
  Si  Si22  1  0.10888000  0.48818000  0.90221000  1.0
  Si  Si23  1  0.90221000  0.10888000  0.48818000  1.0
  Si  Si24  1  0.48818000  0.90221000  0.10888000  1.0
  Si  Si25  1  0.98210000  0.45289000  0.56213000  1.0
  Si  Si26  1  0.56213000  0.98210000  0.45289000  1.0
  Si  Si27  1  0.45289000  0.56213000  0.98210000  1.0
  O  O4  1  0.67130000  0.89540000  0.98510000  1.0
  O  O5  1  0.53230000  0.84490000  0.31950000  1.0
  O  O6  1  0.31950000  0.53230000  0.84490000  1.0
  O  O7  1  0.75440000  0.06050000  0.38080000  1.0
  O  O8  1  0.06050000  0.38080000  0.75440000  1.0
  O  O9  1  0.41320000  0.15170000  0.44620000  1.0
  O  O10  1  0.37060000  0.09140000  0.08920000  1.0
  O  O11  1  0.09140000  0.08920000  0.37060000  1.0
  O  O12  1  0.44620000  0.41320000  0.15170000  1.0
  O  O13  1  0.38080000  0.75440000  0.06050000  1.0
  O  O14  1  0.08920000  0.37060000  0.09140000  1.0
  O  O15  1  0.15170000  0.44620000  0.41320000  1.0
  O  O16  1  0.84490000  0.31950000  0.53230000  1.0
  O  O17  1  0.57740000  0.87020000  0.64220000  1.0
  O  O18  1  0.64220000  0.57740000  0.87020000  1.0
  O  O19  1  0.89540000  0.98510000  0.67130000  1.0
  O  O20  1  0.87020000  0.64220000  0.57740000  1.0
  O  O21  1  0.98510000  0.67130000  0.89540000  1.0
