# generated using pymatgen
data_Zn4B6SeO12
_symmetry_space_group_name_H-M   'P 1'
_cell_length_a   6.65116170
_cell_length_b   6.65116170
_cell_length_c   6.65116170
_cell_angle_alpha   109.47122063
_cell_angle_beta   109.47122063
_cell_angle_gamma   109.47122063
_symmetry_Int_Tables_number   1
_chemical_formula_structural   Zn4B6SeO12
_chemical_formula_sum   'Zn4 B6 Se1 O12'
_cell_volume   226.50126314
_cell_formula_units_Z   1
loop_
 _symmetry_equiv_pos_site_id
 _symmetry_equiv_pos_as_xyz
  1  'x, y, z'
loop_
 _atom_site_type_symbol
 _atom_site_label
 _atom_site_symmetry_multiplicity
 _atom_site_fract_x
 _atom_site_fract_y
 _atom_site_fract_z
 _atom_site_occupancy
  Zn  Zn19  1  0.35576000  0.00000000  0.00000000  1.0
  Zn  Zn20  1  0.00000000  0.35576000  0.00000000  1.0
  Zn  Zn21  1  0.00000000  0.00000000  0.35576000  1.0
  Zn  Zn22  1  0.64424000  0.64424000  0.64424000  1.0
  B  B0  1  0.75000000  0.25000000  0.50000000  1.0
  B  B1  1  0.25000000  0.50000000  0.75000000  1.0
  B  B2  1  0.75000000  0.50000000  0.25000000  1.0
  B  B3  1  0.50000000  0.75000000  0.25000000  1.0
  B  B4  1  0.50000000  0.25000000  0.75000000  1.0
  B  B5  1  0.25000000  0.75000000  0.50000000  1.0
  Se  Se18  1  0.00000000  0.00000000  0.00000000  1.0
  O  O6  1  0.28774000  0.71477000  0.71477000  1.0
  O  O7  1  0.00000000  0.57297000  0.28523000  1.0
  O  O8  1  0.00000000  0.28523000  0.57297000  1.0
  O  O9  1  0.42703000  0.42703000  0.71226000  1.0
  O  O10  1  0.28523000  0.57297000  0.00000000  1.0
  O  O11  1  0.28523000  0.00000000  0.57297000  1.0
  O  O12  1  0.42703000  0.71226000  0.42703000  1.0
  O  O13  1  0.71477000  0.28774000  0.71477000  1.0
  O  O14  1  0.71477000  0.71477000  0.28774000  1.0
  O  O15  1  0.57297000  0.28523000  0.00000000  1.0
  O  O16  1  0.57297000  0.00000000  0.28523000  1.0
  O  O17  1  0.71226000  0.42703000  0.42703000  1.0
