# generated using pymatgen
data_RbNb(GeO3)3
_symmetry_space_group_name_H-M   'P 1'
_cell_length_a   7.03800009
_cell_length_b   7.03800009
_cell_length_c   10.13200000
_cell_angle_alpha   90.00000000
_cell_angle_beta   90.00000000
_cell_angle_gamma   120.00000000
_symmetry_Int_Tables_number   1
_chemical_formula_structural   RbNb(GeO3)3
_chemical_formula_sum   'Rb2 Nb2 Ge6 O18'
_cell_volume   434.63465268
_cell_formula_units_Z   2
loop_
 _symmetry_equiv_pos_site_id
 _symmetry_equiv_pos_as_xyz
  1  'x, y, z'
loop_
 _atom_site_type_symbol
 _atom_site_label
 _atom_site_symmetry_multiplicity
 _atom_site_fract_x
 _atom_site_fract_y
 _atom_site_fract_z
 _atom_site_occupancy
  Rb  Rb0  1  0.66666667  0.33333333  0.00000000  1.0
  Rb  Rb1  1  0.66666667  0.33333333  0.50000000  1.0
  Nb  Nb2  1  0.33333333  0.66666667  0.00000000  1.0
  Nb  Nb3  1  0.33333333  0.66666667  0.50000000  1.0
  Ge  Ge4  1  0.07099967  0.28900033  0.25000000  1.0
  Ge  Ge5  1  0.21800067  0.92900033  0.25000000  1.0
  Ge  Ge6  1  0.71099967  0.78199933  0.25000000  1.0
  Ge  Ge7  1  0.71099967  0.92900033  0.75000000  1.0
  Ge  Ge8  1  0.21800067  0.28900033  0.75000000  1.0
  Ge  Ge9  1  0.07099967  0.78199933  0.75000000  1.0
  O  O10  1  0.25299967  0.19300033  0.25000000  1.0
  O  O11  1  0.94000067  0.74700033  0.25000000  1.0
  O  O12  1  0.80699967  0.05999933  0.25000000  1.0
  O  O13  1  0.80699967  0.74700033  0.75000000  1.0
  O  O14  1  0.94000067  0.19300033  0.75000000  1.0
  O  O15  1  0.25299967  0.05999933  0.75000000  1.0
  O  O16  1  0.09799967  0.44000033  0.11000000  1.0
  O  O17  1  0.34200067  0.90200033  0.39000000  1.0
  O  O18  1  0.55999967  0.65799933  0.39000000  1.0
  O  O19  1  0.55999967  0.65799933  0.11000000  1.0
  O  O20  1  0.34200067  0.90200033  0.11000000  1.0
  O  O21  1  0.55999967  0.90200033  0.89000000  1.0
  O  O22  1  0.34200067  0.44000033  0.89000000  1.0
  O  O23  1  0.09799967  0.65799933  0.89000000  1.0
  O  O24  1  0.34200067  0.44000033  0.61000000  1.0
  O  O25  1  0.09799967  0.65799933  0.61000000  1.0
  O  O26  1  0.09799967  0.44000033  0.39000000  1.0
  O  O27  1  0.55999967  0.90200033  0.61000000  1.0
