# generated using pymatgen
data_Rb2ZrO3
_symmetry_space_group_name_H-M   'P 1'
_cell_length_a   5.97712300
_cell_length_b   6.66750474
_cell_length_c   6.66750474
_cell_angle_alpha   68.61074371
_cell_angle_beta   90.00000000
_cell_angle_gamma   90.00000000
_symmetry_Int_Tables_number   1
_chemical_formula_structural   Rb2ZrO3
_chemical_formula_sum   'Rb4 Zr2 O6'
_cell_volume   247.41525984
_cell_formula_units_Z   2
loop_
 _symmetry_equiv_pos_site_id
 _symmetry_equiv_pos_as_xyz
  1  'x, y, z'
loop_
 _atom_site_type_symbol
 _atom_site_label
 _atom_site_symmetry_multiplicity
 _atom_site_fract_x
 _atom_site_fract_y
 _atom_site_fract_z
 _atom_site_occupancy
  Rb  Rb6  1  0.74372400  0.51960900  0.80768100  1.0
  Rb  Rb7  1  0.24372400  0.80768100  0.51960900  1.0
  Rb  Rb8  1  0.24372400  0.48039100  0.19231900  1.0
  Rb  Rb9  1  0.74372400  0.19231900  0.48039100  1.0
  Zr  Zr10  1  0.26423400  0.08631500  0.91368500  1.0
  Zr  Zr11  1  0.76423400  0.91368500  0.08631500  1.0
  O  O0  1  0.50756500  0.86506100  0.88810800  1.0
  O  O1  1  0.00756500  0.88810800  0.86506100  1.0
  O  O2  1  0.29318800  0.34549000  0.65451000  1.0
  O  O3  1  0.79318800  0.65451000  0.34549000  1.0
  O  O4  1  0.00756500  0.13493900  0.11189200  1.0
  O  O5  1  0.50756500  0.11189200  0.13493900  1.0
