# generated using pymatgen
data_ReSbOF10
_symmetry_space_group_name_H-M   'P 1'
_cell_length_a   7.91000047
_cell_length_b   6.51900000
_cell_length_c   7.94500000
_cell_angle_alpha   90.00000000
_cell_angle_beta   94.19999874
_cell_angle_gamma   90.00000000
_symmetry_Int_Tables_number   1
_chemical_formula_structural   ReSbOF10
_chemical_formula_sum   'Re2 Sb2 O2 F20'
_cell_volume   408.58603229
_cell_formula_units_Z   2
loop_
 _symmetry_equiv_pos_site_id
 _symmetry_equiv_pos_as_xyz
  1  'x, y, z'
loop_
 _atom_site_type_symbol
 _atom_site_label
 _atom_site_symmetry_multiplicity
 _atom_site_fract_x
 _atom_site_fract_y
 _atom_site_fract_z
 _atom_site_occupancy
  Re  Re0  1  0.19016000  0.00000000  0.19011000  1.0
  Re  Re1  1  0.80984000  0.00000000  0.80989000  1.0
  Sb  Sb2  1  0.67167000  0.49570000  0.32843000  1.0
  Sb  Sb3  1  0.32833000  0.49570000  0.67157000  1.0
  O  O4  1  0.66300000  0.96200000  0.65700000  1.0
  O  O5  1  0.33700000  0.96200000  0.34300000  1.0
  F  F6  1  0.24800000  0.72100000  0.57700000  1.0
  F  F7  1  0.98200000  0.96700000  0.67800000  1.0
  F  F8  1  0.00000000  0.02700000  0.00000000  1.0
  F  F9  1  0.51200000  0.65300000  0.20100000  1.0
  F  F10  1  0.68700000  0.97800000  0.98700000  1.0
  F  F11  1  0.84400000  0.73000000  0.84600000  1.0
  F  F12  1  0.50000000  0.49200000  0.50000000  1.0
  F  F13  1  0.17800000  0.26900000  0.16200000  1.0
  F  F14  1  0.01800000  0.96700000  0.32200000  1.0
  F  F15  1  0.82300000  0.48200000  0.16900000  1.0
  F  F16  1  0.43400000  0.26800000  0.75100000  1.0
  F  F17  1  0.15600000  0.73000000  0.15400000  1.0
  F  F18  1  0.80100000  0.30600000  0.48100000  1.0
  F  F19  1  0.31300000  0.97800000  0.01300000  1.0
  F  F20  1  0.82200000  0.26900000  0.83800000  1.0
  F  F21  1  0.17700000  0.48200000  0.83100000  1.0
  F  F22  1  0.19900000  0.30600000  0.51900000  1.0
  F  F23  1  0.48800000  0.65300000  0.79900000  1.0
  F  F24  1  0.56600000  0.26800000  0.24900000  1.0
  F  F25  1  0.75200000  0.72100000  0.42300000  1.0
