# generated using pymatgen
data_BaTi(SiO3)3
_symmetry_space_group_name_H-M   'P 1'
_cell_length_a   6.60000000
_cell_length_b   6.60000000
_cell_length_c   9.71000000
_cell_angle_alpha   90.00000000
_cell_angle_beta   90.00000000
_cell_angle_gamma   120.00000000
_symmetry_Int_Tables_number   1
_chemical_formula_structural   BaTi(SiO3)3
_chemical_formula_sum   'Ba2 Ti2 Si6 O18'
_cell_volume   366.30068658
_cell_formula_units_Z   2
loop_
 _symmetry_equiv_pos_site_id
 _symmetry_equiv_pos_as_xyz
  1  'x, y, z'
loop_
 _atom_site_type_symbol
 _atom_site_label
 _atom_site_symmetry_multiplicity
 _atom_site_fract_x
 _atom_site_fract_y
 _atom_site_fract_z
 _atom_site_occupancy
  Ba  Ba0  1  0.33333333  0.66666667  0.50000000  1.0
  Ba  Ba1  1  0.33333333  0.66666667  0.00000000  1.0
  Ti  Ti2  1  0.00000000  0.00000000  0.50000000  1.0
  Ti  Ti3  1  0.00000000  0.00000000  0.00000000  1.0
  Si  Si4  1  0.88866667  0.27733333  0.25000000  1.0
  Si  Si5  1  0.88866667  0.61133334  0.75000000  1.0
  Si  Si6  1  0.38866666  0.27733333  0.75000000  1.0
  Si  Si7  1  0.38866666  0.11133333  0.25000000  1.0
  Si  Si8  1  0.72266667  0.61133334  0.25000000  1.0
  Si  Si9  1  0.72266667  0.11133333  0.75000000  1.0
  O  O10  1  0.74966667  0.98633333  0.61670000  1.0
  O  O11  1  0.01366667  0.25033333  0.38330000  1.0
  O  O12  1  0.23666666  0.25033333  0.61670000  1.0
  O  O13  1  0.01366667  0.76333334  0.88330000  1.0
  O  O14  1  0.23666666  0.25033333  0.88330000  1.0
  O  O15  1  0.74966667  0.98633333  0.88330000  1.0
  O  O16  1  0.23666666  0.98633333  0.11670000  1.0
  O  O17  1  0.74966667  0.76333334  0.11670000  1.0
  O  O18  1  0.88866667  0.52733333  0.25000000  1.0
  O  O19  1  0.63866666  0.11133333  0.25000000  1.0
  O  O20  1  0.47266667  0.36133334  0.25000000  1.0
  O  O21  1  0.47266667  0.11133333  0.75000000  1.0
  O  O22  1  0.23666666  0.98633333  0.38330000  1.0
  O  O23  1  0.88866667  0.36133334  0.75000000  1.0
  O  O24  1  0.63866666  0.52733333  0.75000000  1.0
  O  O25  1  0.74966667  0.76333334  0.38330000  1.0
  O  O26  1  0.01366667  0.25033333  0.11670000  1.0
  O  O27  1  0.01366667  0.76333334  0.61670000  1.0
