# generated using pymatgen
data_RbTa(GeO3)3
_symmetry_space_group_name_H-M   'P 1'
_cell_length_a   7.04100006
_cell_length_b   7.04100006
_cell_length_c   10.11600000
_cell_angle_alpha   90.00000000
_cell_angle_beta   90.00000000
_cell_angle_gamma   120.00000000
_symmetry_Int_Tables_number   1
_chemical_formula_structural   RbTa(GeO3)3
_chemical_formula_sum   'Rb2 Ta2 Ge6 O18'
_cell_volume   434.31831966
_cell_formula_units_Z   2
loop_
 _symmetry_equiv_pos_site_id
 _symmetry_equiv_pos_as_xyz
  1  'x, y, z'
loop_
 _atom_site_type_symbol
 _atom_site_label
 _atom_site_symmetry_multiplicity
 _atom_site_fract_x
 _atom_site_fract_y
 _atom_site_fract_z
 _atom_site_occupancy
  Rb  Rb0  1  0.66666667  0.33333333  0.00000000  1.0
  Rb  Rb1  1  0.66666667  0.33333333  0.50000000  1.0
  Ta  Ta2  1  0.33333333  0.66666667  0.00000000  1.0
  Ta  Ta3  1  0.33333333  0.66666667  0.50000000  1.0
  Ge  Ge4  1  0.07099967  0.28900033  0.25000000  1.0
  Ge  Ge5  1  0.21800067  0.92900033  0.25000000  1.0
  Ge  Ge6  1  0.71099967  0.78199933  0.25000000  1.0
  Ge  Ge7  1  0.71099967  0.92900033  0.75000000  1.0
  Ge  Ge8  1  0.21800067  0.28900033  0.75000000  1.0
  Ge  Ge9  1  0.07099967  0.78199933  0.75000000  1.0
  O  O10  1  0.25299967  0.19300033  0.25000000  1.0
  O  O11  1  0.94000067  0.74700033  0.25000000  1.0
  O  O12  1  0.80699967  0.05999933  0.25000000  1.0
  O  O13  1  0.80699967  0.74700033  0.75000000  1.0
  O  O14  1  0.94000067  0.19300033  0.75000000  1.0
  O  O15  1  0.25299967  0.05999933  0.75000000  1.0
  O  O16  1  0.10499967  0.45000033  0.11500000  1.0
  O  O17  1  0.34500067  0.89500033  0.38500000  1.0
  O  O18  1  0.54999967  0.65499933  0.38500000  1.0
  O  O19  1  0.54999967  0.65499933  0.11500000  1.0
  O  O20  1  0.34500067  0.89500033  0.11500000  1.0
  O  O21  1  0.54999967  0.89500033  0.88500000  1.0
  O  O22  1  0.34500067  0.45000033  0.88500000  1.0
  O  O23  1  0.10499967  0.65499933  0.88500000  1.0
  O  O24  1  0.34500067  0.45000033  0.61500000  1.0
  O  O25  1  0.10499967  0.65499933  0.61500000  1.0
  O  O26  1  0.10499967  0.45000033  0.38500000  1.0
  O  O27  1  0.54999967  0.89500033  0.61500000  1.0
