# generated using pymatgen
data_KTa(GeO3)3
_symmetry_space_group_name_H-M   'P 1'
_cell_length_a   6.97199995
_cell_length_b   6.97199995
_cell_length_c   10.14400000
_cell_angle_alpha   90.00000000
_cell_angle_beta   90.00000000
_cell_angle_gamma   120.00000000
_symmetry_Int_Tables_number   1
_chemical_formula_structural   KTa(GeO3)3
_chemical_formula_sum   'K2 Ta2 Ge6 O18'
_cell_volume   427.02629940
_cell_formula_units_Z   2
loop_
 _symmetry_equiv_pos_site_id
 _symmetry_equiv_pos_as_xyz
  1  'x, y, z'
loop_
 _atom_site_type_symbol
 _atom_site_label
 _atom_site_symmetry_multiplicity
 _atom_site_fract_x
 _atom_site_fract_y
 _atom_site_fract_z
 _atom_site_occupancy
  K  K0  1  0.33333333  0.66666667  0.50000000  1.0
  K  K1  1  0.33333333  0.66666667  0.00000000  1.0
  Ta  Ta2  1  0.00000000  0.00000000  0.50000000  1.0
  Ta  Ta3  1  0.00000000  0.00000000  0.00000000  1.0
  Ge  Ge4  1  0.73866633  0.62533367  0.75000000  1.0
  Ge  Ge5  1  0.88666733  0.26133367  0.75000000  1.0
  Ge  Ge6  1  0.37466633  0.11333267  0.75000000  1.0
  Ge  Ge7  1  0.37466633  0.26133367  0.25000000  1.0
  Ge  Ge8  1  0.88666733  0.62533367  0.25000000  1.0
  Ge  Ge9  1  0.73866633  0.11333267  0.25000000  1.0
  O  O10  1  0.92166633  0.52833367  0.75000000  1.0
  O  O11  1  0.60666733  0.07833367  0.75000000  1.0
  O  O12  1  0.47166633  0.39333267  0.75000000  1.0
  O  O13  1  0.47166633  0.07833367  0.25000000  1.0
  O  O14  1  0.60666733  0.52833367  0.25000000  1.0
  O  O15  1  0.92166633  0.39333267  0.25000000  1.0
  O  O16  1  0.76466633  0.77333367  0.61000000  1.0
  O  O17  1  0.00866733  0.23533367  0.89000000  1.0
  O  O18  1  0.22666633  0.99133267  0.89000000  1.0
  O  O19  1  0.22666633  0.99133267  0.61000000  1.0
  O  O20  1  0.00866733  0.23533367  0.61000000  1.0
  O  O21  1  0.22666633  0.23533367  0.39000000  1.0
  O  O22  1  0.00866733  0.77333367  0.39000000  1.0
  O  O23  1  0.76466633  0.99133267  0.39000000  1.0
  O  O24  1  0.00866733  0.77333367  0.11000000  1.0
  O  O25  1  0.76466633  0.99133267  0.11000000  1.0
  O  O26  1  0.76466633  0.77333367  0.89000000  1.0
  O  O27  1  0.22666633  0.23533367  0.11000000  1.0
