# generated using pymatgen
data_Zn4P6N12O
_symmetry_space_group_name_H-M   'P 1'
_cell_length_a   7.13812774
_cell_length_b   7.13812774
_cell_length_c   7.13812774
_cell_angle_alpha   109.47122063
_cell_angle_beta   109.47122063
_cell_angle_gamma   109.47122063
_symmetry_Int_Tables_number   1
_chemical_formula_structural   Zn4P6N12O
_chemical_formula_sum   'Zn4 P6 N12 O1'
_cell_volume   279.98260894
_cell_formula_units_Z   1
loop_
 _symmetry_equiv_pos_site_id
 _symmetry_equiv_pos_as_xyz
  1  'x, y, z'
loop_
 _atom_site_type_symbol
 _atom_site_label
 _atom_site_symmetry_multiplicity
 _atom_site_fract_x
 _atom_site_fract_y
 _atom_site_fract_z
 _atom_site_occupancy
  Zn  Zn19  1  0.66372000  0.66372000  0.66372000  1.0
  Zn  Zn20  1  0.00000000  0.00000000  0.33628000  1.0
  Zn  Zn21  1  0.00000000  0.33628000  0.00000000  1.0
  Zn  Zn22  1  0.33628000  0.00000000  0.00000000  1.0
  P  P13  1  0.25000000  0.50000000  0.75000000  1.0
  P  P14  1  0.75000000  0.50000000  0.25000000  1.0
  P  P15  1  0.50000000  0.25000000  0.75000000  1.0
  P  P16  1  0.75000000  0.25000000  0.50000000  1.0
  P  P17  1  0.25000000  0.75000000  0.50000000  1.0
  P  P18  1  0.50000000  0.75000000  0.25000000  1.0
  N  N0  1  0.73717000  0.27354000  0.73717000  1.0
  N  N1  1  0.53637000  0.00000000  0.26283000  1.0
  N  N2  1  0.46363000  0.46363000  0.72646000  1.0
  N  N3  1  0.72646000  0.46363000  0.46363000  1.0
  N  N4  1  0.00000000  0.26283000  0.53637000  1.0
  N  N5  1  0.26283000  0.00000000  0.53637000  1.0
  N  N6  1  0.27354000  0.73717000  0.73717000  1.0
  N  N7  1  0.00000000  0.53637000  0.26283000  1.0
  N  N8  1  0.26283000  0.53637000  0.00000000  1.0
  N  N9  1  0.73717000  0.73717000  0.27354000  1.0
  N  N10  1  0.53637000  0.26283000  0.00000000  1.0
  N  N11  1  0.46363000  0.72646000  0.46363000  1.0
  O  O12  1  0.00000000  0.00000000  0.00000000  1.0
