# generated using pymatgen
data_TlZnPO4
_symmetry_space_group_name_H-M   'P 1'
_cell_length_a   8.73200000
_cell_length_b   5.46800000
_cell_length_c   8.84100000
_cell_angle_alpha   90.00000000
_cell_angle_beta   90.61000003
_cell_angle_gamma   90.00000000
_symmetry_Int_Tables_number   1
_chemical_formula_structural   TlZnPO4
_chemical_formula_sum   'Tl4 Zn4 P4 O16'
_cell_volume   422.10355496
_cell_formula_units_Z   4
loop_
 _symmetry_equiv_pos_site_id
 _symmetry_equiv_pos_as_xyz
  1  'x, y, z'
loop_
 _atom_site_type_symbol
 _atom_site_label
 _atom_site_symmetry_multiplicity
 _atom_site_fract_x
 _atom_site_fract_y
 _atom_site_fract_z
 _atom_site_occupancy
  Tl  Tl0  1  0.50440000  0.51460000  0.31730000  1.0
  Tl  Tl1  1  0.49560000  0.01460000  0.68270000  1.0
  Tl  Tl2  1  0.00240000  0.50000000  0.18890000  1.0
  Tl  Tl3  1  0.99760000  0.00000000  0.81110000  1.0
  Zn  Zn4  1  0.67230000  0.48760000  0.92610000  1.0
  Zn  Zn5  1  0.32770000  0.98760000  0.07390000  1.0
  Zn  Zn6  1  0.17310000  0.51810000  0.59680000  1.0
  Zn  Zn7  1  0.82690000  0.01810000  0.40320000  1.0
  P  P8  1  0.30470000  0.48850000  0.93100000  1.0
  P  P9  1  0.69530000  0.98850000  0.06900000  1.0
  P  P10  1  0.80620000  0.51260000  0.59980000  1.0
  P  P11  1  0.19380000  0.01260000  0.40020000  1.0
  O  O12  1  0.68040000  0.07930000  0.24000000  1.0
  O  O13  1  0.31960000  0.57930000  0.76000000  1.0
  O  O14  1  0.22820000  0.73570000  0.44130000  1.0
  O  O15  1  0.77180000  0.23570000  0.55870000  1.0
  O  O16  1  0.22150000  0.73440000  0.01000000  1.0
  O  O17  1  0.77850000  0.23440000  0.99000000  1.0
  O  O18  1  0.31130000  0.09180000  0.28540000  1.0
  O  O19  1  0.68870000  0.59180000  0.71460000  1.0
  O  O20  1  0.79510000  0.66280000  0.45200000  1.0
  O  O21  1  0.20490000  0.16280000  0.54800000  1.0
  O  O22  1  0.21550000  0.27700000  0.95690000  1.0
  O  O23  1  0.78450000  0.77700000  0.04310000  1.0
  O  O24  1  0.96550000  0.48450000  0.67190000  1.0
  O  O25  1  0.03450000  0.98450000  0.32810000  1.0
  O  O26  1  0.53490000  0.02510000  0.99860000  1.0
  O  O27  1  0.46510000  0.52510000  0.00140000  1.0
