# generated using pymatgen
data_K2Zn(SiO3)2
_symmetry_space_group_name_H-M   'P 1'
_cell_length_a   5.72148932
_cell_length_b   5.72148932
_cell_length_c   10.44990000
_cell_angle_alpha   90.00000000
_cell_angle_beta   90.00000000
_cell_angle_gamma   113.21007240
_symmetry_Int_Tables_number   1
_chemical_formula_structural   K2Zn(SiO3)2
_chemical_formula_sum   'K4 Zn2 Si4 O12'
_cell_volume   314.39602865
_cell_formula_units_Z   2
loop_
 _symmetry_equiv_pos_site_id
 _symmetry_equiv_pos_as_xyz
  1  'x, y, z'
loop_
 _atom_site_type_symbol
 _atom_site_label
 _atom_site_symmetry_multiplicity
 _atom_site_fract_x
 _atom_site_fract_y
 _atom_site_fract_z
 _atom_site_occupancy
  K  K0  1  0.71810000  0.06350000  0.57550000  1.0
  K  K1  1  0.93650000  0.28190000  0.92450000  1.0
  K  K2  1  0.28190000  0.93650000  0.07550000  1.0
  K  K3  1  0.06350000  0.71810000  0.42450000  1.0
  Zn  Zn20  1  0.80710000  0.19290000  0.25000000  1.0
  Zn  Zn21  1  0.19290000  0.80710000  0.75000000  1.0
  Si  Si16  1  0.63460000  0.66920000  0.86330000  1.0
  Si  Si17  1  0.66920000  0.63460000  0.13670000  1.0
  Si  Si18  1  0.33080000  0.36540000  0.63670000  1.0
  Si  Si19  1  0.36540000  0.33080000  0.36330000  1.0
  O  O4  1  0.45190000  0.54810000  0.25000000  1.0
  O  O5  1  0.48140000  0.12240000  0.33620000  1.0
  O  O6  1  0.48490000  0.48490000  0.50000000  1.0
  O  O7  1  0.12240000  0.48140000  0.66380000  1.0
  O  O8  1  0.51860000  0.87760000  0.83620000  1.0
  O  O9  1  0.93830000  0.78230000  0.87600000  1.0
  O  O10  1  0.06170000  0.21770000  0.37600000  1.0
  O  O11  1  0.54810000  0.45190000  0.75000000  1.0
  O  O12  1  0.87760000  0.51860000  0.16380000  1.0
  O  O13  1  0.78230000  0.93830000  0.12400000  1.0
  O  O14  1  0.21770000  0.06170000  0.62400000  1.0
  O  O15  1  0.51510000  0.51510000  0.00000000  1.0
