# generated using pymatgen
data_Sr2ZnGe2O7
_symmetry_space_group_name_H-M   'P 1'
_cell_length_a   8.16900000
_cell_length_b   8.16900000
_cell_length_c   5.33700000
_cell_angle_alpha   90.00000000
_cell_angle_beta   90.00000000
_cell_angle_gamma   90.00000000
_symmetry_Int_Tables_number   1
_chemical_formula_structural   Sr2ZnGe2O7
_chemical_formula_sum   'Sr4 Zn2 Ge4 O14'
_cell_volume   356.15167806
_cell_formula_units_Z   2
loop_
 _symmetry_equiv_pos_site_id
 _symmetry_equiv_pos_as_xyz
  1  'x, y, z'
loop_
 _atom_site_type_symbol
 _atom_site_label
 _atom_site_symmetry_multiplicity
 _atom_site_fract_x
 _atom_site_fract_y
 _atom_site_fract_z
 _atom_site_occupancy
  Sr  Sr0  1  0.16518000  0.66518000  0.50656000  1.0
  Sr  Sr1  1  0.66518000  0.83482000  0.49344000  1.0
  Sr  Sr2  1  0.33482000  0.16518000  0.49344000  1.0
  Sr  Sr3  1  0.83482000  0.33482000  0.50656000  1.0
  Zn  Zn4  1  0.00000000  0.00000000  0.00000000  1.0
  Zn  Zn5  1  0.50000000  0.50000000  0.00000000  1.0
  Ge  Ge6  1  0.35755000  0.85755000  0.95255000  1.0
  Ge  Ge7  1  0.64245000  0.14245000  0.95255000  1.0
  Ge  Ge8  1  0.85755000  0.64245000  0.04745000  1.0
  Ge  Ge9  1  0.14245000  0.35755000  0.04745000  1.0
  O  O10  1  0.41764000  0.68014000  0.79514000  1.0
  O  O11  1  0.58236000  0.31986000  0.79514000  1.0
  O  O12  1  0.31986000  0.41764000  0.20486000  1.0
  O  O13  1  0.68014000  0.58236000  0.20486000  1.0
  O  O14  1  0.18014000  0.91764000  0.79514000  1.0
  O  O15  1  0.91764000  0.81986000  0.20486000  1.0
  O  O16  1  0.08236000  0.18014000  0.20486000  1.0
  O  O17  1  0.81986000  0.08236000  0.79514000  1.0
  O  O18  1  0.36109000  0.86109000  0.27401000  1.0
  O  O19  1  0.86109000  0.63891000  0.72599000  1.0
  O  O20  1  0.00000000  0.50000000  0.17652000  1.0
  O  O21  1  0.50000000  0.00000000  0.82348000  1.0
  O  O22  1  0.63891000  0.13891000  0.27401000  1.0
  O  O23  1  0.13891000  0.36109000  0.72599000  1.0
