# generated using pymatgen
data_Tl2MoO4
_symmetry_space_group_name_H-M   'P 1'
_cell_length_a   6.35245201
_cell_length_b   6.35245201
_cell_length_c   8.25584697
_cell_angle_alpha   89.20498606
_cell_angle_beta   89.20498606
_cell_angle_gamma   63.14136838
_symmetry_Int_Tables_number   1
_chemical_formula_structural   Tl2MoO4
_chemical_formula_sum   'Tl4 Mo2 O8'
_cell_volume   297.17483160
_cell_formula_units_Z   2
loop_
 _symmetry_equiv_pos_site_id
 _symmetry_equiv_pos_as_xyz
  1  'x, y, z'
loop_
 _atom_site_type_symbol
 _atom_site_label
 _atom_site_symmetry_multiplicity
 _atom_site_fract_x
 _atom_site_fract_y
 _atom_site_fract_z
 _atom_site_occupancy
  Tl  Tl10  1  0.65089071  0.66761651  0.18837410  1.0
  Tl  Tl11  1  0.33238349  0.34910929  0.81162590  1.0
  Tl  Tl12  1  0.03798216  0.96201784  0.50000000  1.0
  Tl  Tl13  1  0.00903033  0.99096967  0.00000000  1.0
  Mo  Mo0  1  0.36502407  0.31577192  0.30412162  1.0
  Mo  Mo1  1  0.68422808  0.63497593  0.69587838  1.0
  O  O2  1  0.23843881  0.59610248  0.19957792  1.0
  O  O3  1  0.40389752  0.76156119  0.80042208  1.0
  O  O4  1  0.28590977  0.11028762  0.20625219  1.0
  O  O5  1  0.88971238  0.71409023  0.79374781  1.0
  O  O6  1  0.67942901  0.20763218  0.29311181  1.0
  O  O7  1  0.79236782  0.32057099  0.70688819  1.0
  O  O8  1  0.64077062  0.73946478  0.49084945  1.0
  O  O9  1  0.26053522  0.35922938  0.50915055  1.0
