# generated using pymatgen
data_Ag2PHO4
_symmetry_space_group_name_H-M   'P 1'
_cell_length_a   6.18999989
_cell_length_b   6.18999989
_cell_length_c   9.01500000
_cell_angle_alpha   90.00000000
_cell_angle_beta   90.00000000
_cell_angle_gamma   120.00000000
_symmetry_Int_Tables_number   1
_chemical_formula_structural   Ag2PHO4
_chemical_formula_sum   'Ag6 P3 H3 O12'
_cell_volume   299.14217387
_cell_formula_units_Z   3
loop_
 _symmetry_equiv_pos_site_id
 _symmetry_equiv_pos_as_xyz
  1  'x, y, z'
loop_
 _atom_site_type_symbol
 _atom_site_label
 _atom_site_symmetry_multiplicity
 _atom_site_fract_x
 _atom_site_fract_y
 _atom_site_fract_z
 _atom_site_occupancy
  Ag  Ag0  1  0.49693333  0.74846667  0.00003300  1.0
  Ag  Ag1  1  0.25153333  0.74846667  0.33333333  1.0
  Ag  Ag2  1  0.25153333  0.50306667  0.66666667  1.0
  Ag  Ag3  1  0.92313333  0.46156667  0.00003300  1.0
  Ag  Ag4  1  0.53843333  0.46156667  0.33333333  1.0
  Ag  Ag5  1  0.53843333  0.07686667  0.66666667  1.0
  P  P6  1  0.31593333  0.15796667  0.00003300  1.0
  P  P7  1  0.84203333  0.15796667  0.33333333  1.0
  P  P8  1  0.84203333  0.68406667  0.66666667  1.0
  H  H9  1  0.95333333  0.90666667  0.16663300  1.0
  H  H10  1  0.09333333  0.04666667  0.49996633  1.0
  H  H11  1  0.95333333  0.04666667  0.83329967  1.0
  O  O12  1  0.47893333  0.07896667  0.91863300  1.0
  O  O13  1  0.92103333  0.39996667  0.25196633  1.0
  O  O14  1  0.60003333  0.52106667  0.58529967  1.0
  O  O15  1  0.47893333  0.39996667  0.08136700  1.0
  O  O16  1  0.92103333  0.52106667  0.74803367  1.0
  O  O17  1  0.60003333  0.07896667  0.41470033  1.0
  O  O18  1  0.14743333  0.94166667  0.10863300  1.0
  O  O19  1  0.05833333  0.20576667  0.44196633  1.0
  O  O20  1  0.79423333  0.85256667  0.77529967  1.0
  O  O21  1  0.14743333  0.20576667  0.89136700  1.0
  O  O22  1  0.05833333  0.85256667  0.55803367  1.0
  O  O23  1  0.79423333  0.94166667  0.22470033  1.0
