# generated using pymatgen
data_RbZnPO4
_symmetry_space_group_name_H-M   'P 1'
_cell_length_a   8.85500000
_cell_length_b   5.40800000
_cell_length_c   8.95600000
_cell_angle_alpha   90.00000000
_cell_angle_beta   90.89999997
_cell_angle_gamma   90.00000000
_symmetry_Int_Tables_number   1
_chemical_formula_structural   RbZnPO4
_chemical_formula_sum   'Rb4 Zn4 P4 O16'
_cell_volume   428.83058475
_cell_formula_units_Z   4
loop_
 _symmetry_equiv_pos_site_id
 _symmetry_equiv_pos_as_xyz
  1  'x, y, z'
loop_
 _atom_site_type_symbol
 _atom_site_label
 _atom_site_symmetry_multiplicity
 _atom_site_fract_x
 _atom_site_fract_y
 _atom_site_fract_z
 _atom_site_occupancy
  Rb  Rb0  1  0.49820000  0.21350000  0.68960000  1.0
  Rb  Rb1  1  0.50180000  0.71350000  0.31040000  1.0
  Rb  Rb2  1  0.00690000  0.74760000  0.19960000  1.0
  Rb  Rb3  1  0.99310000  0.24760000  0.80040000  1.0
  Zn  Zn4  1  0.32780000  0.20870000  0.09230000  1.0
  Zn  Zn5  1  0.67220000  0.70870000  0.90770000  1.0
  Zn  Zn6  1  0.82560000  0.25000000  0.42250000  1.0
  Zn  Zn7  1  0.17440000  0.75000000  0.57750000  1.0
  P  P8  1  0.69300000  0.21020000  0.09650000  1.0
  P  P9  1  0.30700000  0.71020000  0.90350000  1.0
  P  P10  1  0.80440000  0.74030000  0.57720000  1.0
  P  P11  1  0.19560000  0.24030000  0.42280000  1.0
  O  O12  1  0.80390000  0.79550000  0.74710000  1.0
  O  O13  1  0.19610000  0.29550000  0.25290000  1.0
  O  O14  1  0.72840000  0.94990000  0.49110000  1.0
  O  O15  1  0.27160000  0.44990000  0.50890000  1.0
  O  O16  1  0.71860000  0.49660000  0.54290000  1.0
  O  O17  1  0.28140000  0.99660000  0.45710000  1.0
  O  O18  1  0.96540000  0.71780000  0.52050000  1.0
  O  O19  1  0.03460000  0.21780000  0.47950000  1.0
  O  O20  1  0.70770000  0.36470000  0.95200000  1.0
  O  O21  1  0.29230000  0.86470000  0.04800000  1.0
  O  O22  1  0.72990000  0.93850000  0.06670000  1.0
  O  O23  1  0.27010000  0.43850000  0.93330000  1.0
  O  O24  1  0.46580000  0.74400000  0.83800000  1.0
  O  O25  1  0.53420000  0.24400000  0.16200000  1.0
  O  O26  1  0.19200000  0.80980000  0.78750000  1.0
  O  O27  1  0.80800000  0.30980000  0.21250000  1.0
