# generated using pymatgen
data_Na3BiO3
_symmetry_space_group_name_H-M   'P 1'
_cell_length_a   8.38918809
_cell_length_b   8.38918809
_cell_length_c   8.38918809
_cell_angle_alpha   109.47122063
_cell_angle_beta   109.47122063
_cell_angle_gamma   109.47122063
_symmetry_Int_Tables_number   1
_chemical_formula_structural   Na3BiO3
_chemical_formula_sum   'Na12 Bi4 O12'
_cell_volume   454.50420350
_cell_formula_units_Z   4
loop_
 _symmetry_equiv_pos_site_id
 _symmetry_equiv_pos_as_xyz
  1  'x, y, z'
loop_
 _atom_site_type_symbol
 _atom_site_label
 _atom_site_symmetry_multiplicity
 _atom_site_fract_x
 _atom_site_fract_y
 _atom_site_fract_z
 _atom_site_occupancy
  Na  Na4  1  0.72950000  0.00000000  0.48570000  1.0
  Na  Na5  1  0.72950000  0.48570000  0.00000000  1.0
  Na  Na6  1  0.24380000  0.51430000  0.51430000  1.0
  Na  Na7  1  0.51430000  0.24380000  0.51430000  1.0
  Na  Na8  1  0.27050000  0.75620000  0.27050000  1.0
  Na  Na9  1  0.48570000  0.00000000  0.72950000  1.0
  Na  Na10  1  0.48570000  0.72950000  0.00000000  1.0
  Na  Na11  1  0.27050000  0.27050000  0.75620000  1.0
  Na  Na12  1  0.00000000  0.48570000  0.72950000  1.0
  Na  Na13  1  0.00000000  0.72950000  0.48570000  1.0
  Na  Na14  1  0.75620000  0.27050000  0.27050000  1.0
  Na  Na15  1  0.51430000  0.51430000  0.24380000  1.0
  Bi  Bi0  1  0.71540000  0.71540000  0.71540000  1.0
  Bi  Bi1  1  0.00000000  0.28460000  0.00000000  1.0
  Bi  Bi2  1  0.28460000  0.00000000  0.00000000  1.0
  Bi  Bi3  1  0.00000000  0.00000000  0.28460000  1.0
  O  O16  1  0.25620000  0.77470000  0.77470000  1.0
  O  O17  1  0.48150000  0.00000000  0.22530000  1.0
  O  O18  1  0.48150000  0.22530000  0.00000000  1.0
  O  O19  1  0.77470000  0.77470000  0.25620000  1.0
  O  O20  1  0.00000000  0.48150000  0.22530000  1.0
  O  O21  1  0.00000000  0.22530000  0.48150000  1.0
  O  O22  1  0.74380000  0.51850000  0.51850000  1.0
  O  O23  1  0.51850000  0.51850000  0.74380000  1.0
  O  O24  1  0.51850000  0.74380000  0.51850000  1.0
  O  O25  1  0.22530000  0.48150000  0.00000000  1.0
  O  O26  1  0.22530000  0.00000000  0.48150000  1.0
  O  O27  1  0.77470000  0.25620000  0.77470000  1.0
