# generated using pymatgen
data_Cs3BiO3
_symmetry_space_group_name_H-M   'P 1'
_cell_length_a   9.20860000
_cell_length_b   9.20860000
_cell_length_c   9.20860000
_cell_angle_alpha   90.00000000
_cell_angle_beta   90.00000000
_cell_angle_gamma   90.00000000
_symmetry_Int_Tables_number   1
_chemical_formula_structural   Cs3BiO3
_chemical_formula_sum   'Cs12 Bi4 O12'
_cell_volume   780.87375393
_cell_formula_units_Z   4
loop_
 _symmetry_equiv_pos_site_id
 _symmetry_equiv_pos_as_xyz
  1  'x, y, z'
loop_
 _atom_site_type_symbol
 _atom_site_label
 _atom_site_symmetry_multiplicity
 _atom_site_fract_x
 _atom_site_fract_y
 _atom_site_fract_z
 _atom_site_occupancy
  Cs  Cs0  1  0.02840000  0.02840000  0.02840000  1.0
  Cs  Cs1  1  0.47160000  0.97160000  0.52840000  1.0
  Cs  Cs2  1  0.52840000  0.47160000  0.97160000  1.0
  Cs  Cs3  1  0.97160000  0.52840000  0.47160000  1.0
  Cs  Cs4  1  0.96910000  0.46910000  0.03090000  1.0
  Cs  Cs5  1  0.53090000  0.53090000  0.53090000  1.0
  Cs  Cs6  1  0.22650000  0.27350000  0.72650000  1.0
  Cs  Cs7  1  0.27350000  0.72650000  0.22650000  1.0
  Cs  Cs8  1  0.72650000  0.22650000  0.27350000  1.0
  Cs  Cs9  1  0.77350000  0.77350000  0.77350000  1.0
  Cs  Cs10  1  0.46910000  0.03090000  0.96910000  1.0
  Cs  Cs11  1  0.03090000  0.96910000  0.46910000  1.0
  Bi  Bi12  1  0.74340000  0.75660000  0.24340000  1.0
  Bi  Bi13  1  0.75660000  0.24340000  0.74340000  1.0
  Bi  Bi14  1  0.24340000  0.74340000  0.75660000  1.0
  Bi  Bi15  1  0.25660000  0.25660000  0.25660000  1.0
  O  O16  1  0.53890000  0.23890000  0.70510000  1.0
  O  O17  1  0.03890000  0.26110000  0.29490000  1.0
  O  O18  1  0.46110000  0.73890000  0.79490000  1.0
  O  O19  1  0.26110000  0.29490000  0.03890000  1.0
  O  O20  1  0.23890000  0.70510000  0.53890000  1.0
  O  O21  1  0.70510000  0.53890000  0.23890000  1.0
  O  O22  1  0.73890000  0.79490000  0.46110000  1.0
  O  O23  1  0.76110000  0.20510000  0.96110000  1.0
  O  O24  1  0.20510000  0.96110000  0.76110000  1.0
  O  O25  1  0.96110000  0.76110000  0.20510000  1.0
  O  O26  1  0.79490000  0.46110000  0.73890000  1.0
  O  O27  1  0.29490000  0.03890000  0.26110000  1.0
