# generated using pymatgen
data_BaV2O6
_symmetry_space_group_name_H-M   'P 1'
_cell_length_a   7.59862527
_cell_length_b   7.59862527
_cell_length_c   7.91600000
_cell_angle_alpha   90.00000000
_cell_angle_beta   90.00000000
_cell_angle_gamma   112.14723025
_symmetry_Int_Tables_number   1
_chemical_formula_structural   BaV2O6
_chemical_formula_sum   'Ba3 V6 O18'
_cell_volume   423.33984312
_cell_formula_units_Z   3
loop_
 _symmetry_equiv_pos_site_id
 _symmetry_equiv_pos_as_xyz
  1  'x, y, z'
loop_
 _atom_site_type_symbol
 _atom_site_label
 _atom_site_symmetry_multiplicity
 _atom_site_fract_x
 _atom_site_fract_y
 _atom_site_fract_z
 _atom_site_occupancy
  Ba  Ba0  1  0.66490258  0.33509742  0.50000000  1.0
  Ba  Ba1  1  0.33509742  0.66490258  0.50000000  1.0
  Ba  Ba2  1  0.50000000  0.50000000  0.00000000  1.0
  V  V21  1  0.50000000  0.00000000  0.93560041  1.0
  V  V22  1  0.00000000  0.50000000  0.06439959  1.0
  V  V23  1  0.24907701  0.10091932  0.25815981  1.0
  V  V24  1  0.75092299  0.89908067  0.25815981  1.0
  V  V25  1  0.89908067  0.75092299  0.74184019  1.0
  V  V26  1  0.10091933  0.24907701  0.74184019  1.0
  O  O3  1  0.64392856  0.91222671  0.06133528  1.0
  O  O4  1  0.35607144  0.08777329  0.06133528  1.0
  O  O5  1  0.91222671  0.64392856  0.93866472  1.0
  O  O6  1  0.08777329  0.35607144  0.93866472  1.0
  O  O7  1  0.67188231  0.99311288  0.40985332  1.0
  O  O8  1  0.32811769  0.00688712  0.40985332  1.0
  O  O9  1  0.99311288  0.67188231  0.59014668  1.0
  O  O10  1  0.00688712  0.32811769  0.59014668  1.0
  O  O11  1  0.37137844  0.81922549  0.81783891  1.0
  O  O12  1  0.00000000  0.00000000  0.75303920  1.0
  O  O13  1  0.00000000  0.00000000  0.24696080  1.0
  O  O14  1  0.33224038  0.33381363  0.70203139  1.0
  O  O15  1  0.66775962  0.66618637  0.70203139  1.0
  O  O16  1  0.62862156  0.18077451  0.81783891  1.0
  O  O17  1  0.66618637  0.66775962  0.29796861  1.0
  O  O18  1  0.18077451  0.62862156  0.18216109  1.0
  O  O19  1  0.81922549  0.37137844  0.18216109  1.0
  O  O20  1  0.33381363  0.33224038  0.29796861  1.0
