# generated using pymatgen
data_Sr4I6O
_symmetry_space_group_name_H-M   'P 1'
_cell_length_a   10.74700000
_cell_length_b   10.74700000
_cell_length_c   7.86780000
_cell_angle_alpha   90.00000000
_cell_angle_beta   90.00000000
_cell_angle_gamma   120.00000000
_symmetry_Int_Tables_number   1
_chemical_formula_structural   Sr4I6O
_chemical_formula_sum   'Sr8 I12 O2'
_cell_volume   786.97047850
_cell_formula_units_Z   2
loop_
 _symmetry_equiv_pos_site_id
 _symmetry_equiv_pos_as_xyz
  1  'x, y, z'
loop_
 _atom_site_type_symbol
 _atom_site_label
 _atom_site_symmetry_multiplicity
 _atom_site_fract_x
 _atom_site_fract_y
 _atom_site_fract_z
 _atom_site_occupancy
  Sr  Sr0  1  0.57687001  0.78843500  0.48599000  1.0
  Sr  Sr1  1  0.78843500  0.21156499  0.98599000  1.0
  Sr  Sr2  1  0.66666667  0.33333333  0.38470000  1.0
  Sr  Sr3  1  0.21156499  0.42312999  0.48599000  1.0
  Sr  Sr4  1  0.21156500  0.78843501  0.48599000  1.0
  Sr  Sr5  1  0.78843501  0.57687001  0.98599000  1.0
  Sr  Sr6  1  0.42312999  0.21156500  0.98599000  1.0
  Sr  Sr7  1  0.33333333  0.66666667  0.88470000  1.0
  I  I8  1  0.93084001  0.46542001  0.67690000  1.0
  I  I9  1  0.53457999  0.06915999  0.67690000  1.0
  I  I10  1  0.06915999  0.53457999  0.17690000  1.0
  I  I11  1  0.53457999  0.46542001  0.67690000  1.0
  I  I12  1  0.25532001  0.12766000  0.36865000  1.0
  I  I13  1  0.12766000  0.25532001  0.86865000  1.0
  I  I14  1  0.12766000  0.87234000  0.86865000  1.0
  I  I15  1  0.87234000  0.12766000  0.36865000  1.0
  I  I16  1  0.87234000  0.74467999  0.36865000  1.0
  I  I17  1  0.74467999  0.87234000  0.86865000  1.0
  I  I18  1  0.46542001  0.53457999  0.17690000  1.0
  I  I19  1  0.46542001  0.93084001  0.17690000  1.0
  O  O20  1  0.66666667  0.33333333  0.08400000  1.0
  O  O21  1  0.33333333  0.66666667  0.58400000  1.0
