# generated using pymatgen
data_AsPO5
_symmetry_space_group_name_H-M   'P 1'
_cell_length_a   4.53600000
_cell_length_b   8.17100000
_cell_length_c   8.41700000
_cell_angle_alpha   90.00000000
_cell_angle_beta   90.00000000
_cell_angle_gamma   90.00000000
_symmetry_Int_Tables_number   1
_chemical_formula_structural   AsPO5
_chemical_formula_sum   'As4 P4 O20'
_cell_volume   311.96479255
_cell_formula_units_Z   4
loop_
 _symmetry_equiv_pos_site_id
 _symmetry_equiv_pos_as_xyz
  1  'x, y, z'
loop_
 _atom_site_type_symbol
 _atom_site_label
 _atom_site_symmetry_multiplicity
 _atom_site_fract_x
 _atom_site_fract_y
 _atom_site_fract_z
 _atom_site_occupancy
  As  As0  1  0.62300000  0.35000000  0.59800000  1.0
  As  As1  1  0.12300000  0.15000000  0.40200000  1.0
  As  As2  1  0.37700000  0.85000000  0.90200000  1.0
  As  As3  1  0.87700000  0.65000000  0.09800000  1.0
  P  P4  1  0.62700000  0.96900000  0.21900000  1.0
  P  P5  1  0.12700000  0.53100000  0.78100000  1.0
  P  P6  1  0.37300000  0.46900000  0.28100000  1.0
  P  P7  1  0.87300000  0.03100000  0.71900000  1.0
  O  O8  1  0.03800000  0.49800000  0.96500000  1.0
  O  O9  1  0.53800000  0.00200000  0.03500000  1.0
  O  O10  1  0.96200000  0.99800000  0.53500000  1.0
  O  O11  1  0.46200000  0.50200000  0.46500000  1.0
  O  O12  1  0.20000000  0.70700000  0.75400000  1.0
  O  O13  1  0.70000000  0.79300000  0.24600000  1.0
  O  O14  1  0.80000000  0.20700000  0.74600000  1.0
  O  O15  1  0.30000000  0.29300000  0.25400000  1.0
  O  O16  1  0.91200000  0.31800000  0.45700000  1.0
  O  O17  1  0.41200000  0.18200000  0.54300000  1.0
  O  O18  1  0.08800000  0.81800000  0.04300000  1.0
  O  O19  1  0.58800000  0.68200000  0.95700000  1.0
  O  O20  1  0.14000000  0.59600000  0.25400000  1.0
  O  O21  1  0.64000000  0.90400000  0.74600000  1.0
  O  O22  1  0.86000000  0.09600000  0.24600000  1.0
  O  O23  1  0.36000000  0.40400000  0.75400000  1.0
  O  O24  1  0.66500000  0.48300000  0.17900000  1.0
  O  O25  1  0.16500000  0.01700000  0.82100000  1.0
  O  O26  1  0.33500000  0.98300000  0.32100000  1.0
  O  O27  1  0.83500000  0.51700000  0.67900000  1.0
