# generated using pymatgen
data_K6Ge2O7
_symmetry_space_group_name_H-M   'P 1'
_cell_length_a   6.54900000
_cell_length_b   9.09400000
_cell_length_c   11.08592380
_cell_angle_alpha   90.00000000
_cell_angle_beta   124.35972911
_cell_angle_gamma   90.00000000
_symmetry_Int_Tables_number   1
_chemical_formula_structural   K6Ge2O7
_chemical_formula_sum   'K12 Ge4 O14'
_cell_volume   545.03497449
_cell_formula_units_Z   2
loop_
 _symmetry_equiv_pos_site_id
 _symmetry_equiv_pos_as_xyz
  1  'x, y, z'
loop_
 _atom_site_type_symbol
 _atom_site_label
 _atom_site_symmetry_multiplicity
 _atom_site_fract_x
 _atom_site_fract_y
 _atom_site_fract_z
 _atom_site_occupancy
  K  K0  1  0.61560000  0.47420000  0.22480000  1.0
  K  K1  1  0.40520000  0.96170000  0.27810000  1.0
  K  K2  1  0.02920000  0.09690000  0.91560000  1.0
  K  K3  1  0.02920000  0.90310000  0.41560000  1.0
  K  K4  1  0.20360000  0.27170000  0.44730000  1.0
  K  K5  1  0.20360000  0.72830000  0.94730000  1.0
  K  K6  1  0.78580000  0.22240000  0.53540000  1.0
  K  K7  1  0.78580000  0.77760000  0.03540000  1.0
  K  K8  1  0.97780000  0.39880000  0.08040000  1.0
  K  K9  1  0.97780000  0.60120000  0.58040000  1.0
  K  K10  1  0.40520000  0.03830000  0.77810000  1.0
  K  K11  1  0.61560000  0.52580000  0.72480000  1.0
  Ge  Ge12  1  0.32080000  0.60990000  0.37100000  1.0
  Ge  Ge13  1  0.67920000  0.11340000  0.12900000  1.0
  Ge  Ge14  1  0.67920000  0.88660000  0.62900000  1.0
  Ge  Ge15  1  0.32080000  0.39010000  0.87100000  1.0
  O  O16  1  0.27600000  0.32400000  0.71100000  1.0
  O  O17  1  0.50400000  0.45200000  0.42500000  1.0
  O  O18  1  0.45100000  0.25000000  0.00500000  1.0
  O  O19  1  0.45100000  0.75000000  0.50500000  1.0
  O  O20  1  0.48300000  0.96700000  0.05200000  1.0
  O  O21  1  0.48300000  0.03300000  0.55200000  1.0
  O  O22  1  0.92300000  0.10300000  0.11100000  1.0
  O  O23  1  0.92300000  0.89700000  0.61100000  1.0
  O  O24  1  0.76800000  0.16300000  0.30200000  1.0
  O  O25  1  0.76800000  0.83700000  0.80200000  1.0
  O  O26  1  0.50400000  0.54800000  0.92500000  1.0
  O  O27  1  0.04800000  0.57900000  0.35600000  1.0
  O  O28  1  0.27600000  0.67600000  0.21100000  1.0
  O  O29  1  0.04800000  0.42100000  0.85600000  1.0
