# generated using pymatgen
data_As2O5
_symmetry_space_group_name_H-M   'P 1'
_cell_length_a   4.62600000
_cell_length_b   8.45000000
_cell_length_c   8.64600000
_cell_angle_alpha   90.00000000
_cell_angle_beta   90.00000000
_cell_angle_gamma   90.00000000
_symmetry_Int_Tables_number   1
_chemical_formula_structural   As2O5
_chemical_formula_sum   'As8 O20'
_cell_volume   337.96954620
_cell_formula_units_Z   4
loop_
 _symmetry_equiv_pos_site_id
 _symmetry_equiv_pos_as_xyz
  1  'x, y, z'
loop_
 _atom_site_type_symbol
 _atom_site_label
 _atom_site_symmetry_multiplicity
 _atom_site_fract_x
 _atom_site_fract_y
 _atom_site_fract_z
 _atom_site_occupancy
  As  As0  1  0.88400000  0.03260000  0.71640000  1.0
  As  As1  1  0.38400000  0.46740000  0.28360000  1.0
  As  As2  1  0.11600000  0.53260000  0.78360000  1.0
  As  As3  1  0.61600000  0.96740000  0.21640000  1.0
  As  As4  1  0.87840000  0.65250000  0.09850000  1.0
  As  As5  1  0.37840000  0.84750000  0.90150000  1.0
  As  As6  1  0.12160000  0.15250000  0.40150000  1.0
  As  As7  1  0.62160000  0.34750000  0.59850000  1.0
  O  O8  1  0.05000000  0.50610000  0.97430000  1.0
  O  O9  1  0.55000000  0.99390000  0.02570000  1.0
  O  O10  1  0.95000000  0.00610000  0.52570000  1.0
  O  O11  1  0.45000000  0.49390000  0.47430000  1.0
  O  O12  1  0.21120000  0.72570000  0.75100000  1.0
  O  O13  1  0.71120000  0.77430000  0.24900000  1.0
  O  O14  1  0.78880000  0.22570000  0.74900000  1.0
  O  O15  1  0.28880000  0.27430000  0.25100000  1.0
  O  O16  1  0.90490000  0.31660000  0.45970000  1.0
  O  O17  1  0.40490000  0.18340000  0.54030000  1.0
  O  O18  1  0.09510000  0.81660000  0.04030000  1.0
  O  O19  1  0.59510000  0.68340000  0.95970000  1.0
  O  O20  1  0.13290000  0.60610000  0.25470000  1.0
  O  O21  1  0.63290000  0.89390000  0.74530000  1.0
  O  O22  1  0.86710000  0.10610000  0.24530000  1.0
  O  O23  1  0.36710000  0.39390000  0.75470000  1.0
  O  O24  1  0.66290000  0.48450000  0.16760000  1.0
  O  O25  1  0.16290000  0.01550000  0.83240000  1.0
  O  O26  1  0.33710000  0.98450000  0.33240000  1.0
  O  O27  1  0.83710000  0.51550000  0.66760000  1.0
