# generated using pymatgen
data_K3SbO3
_symmetry_space_group_name_H-M   'P 1'
_cell_length_a   8.35200000
_cell_length_b   8.35200000
_cell_length_c   8.35200000
_cell_angle_alpha   90.00000000
_cell_angle_beta   90.00000000
_cell_angle_gamma   90.00000000
_symmetry_Int_Tables_number   1
_chemical_formula_structural   K3SbO3
_chemical_formula_sum   'K12 Sb4 O12'
_cell_volume   582.60131021
_cell_formula_units_Z   4
loop_
 _symmetry_equiv_pos_site_id
 _symmetry_equiv_pos_as_xyz
  1  'x, y, z'
loop_
 _atom_site_type_symbol
 _atom_site_label
 _atom_site_symmetry_multiplicity
 _atom_site_fract_x
 _atom_site_fract_y
 _atom_site_fract_z
 _atom_site_occupancy
  K  K0  1  0.02565000  0.02565000  0.02565000  1.0
  K  K1  1  0.47435000  0.97435000  0.52565000  1.0
  K  K2  1  0.52565000  0.47435000  0.97435000  1.0
  K  K3  1  0.97435000  0.52565000  0.47435000  1.0
  K  K4  1  0.21610000  0.71610000  0.78390000  1.0
  K  K5  1  0.28390000  0.28390000  0.28390000  1.0
  K  K6  1  0.21100000  0.28900000  0.71100000  1.0
  K  K7  1  0.28900000  0.71100000  0.21100000  1.0
  K  K8  1  0.71100000  0.21100000  0.28900000  1.0
  K  K9  1  0.78900000  0.78900000  0.78900000  1.0
  K  K10  1  0.71610000  0.78390000  0.21610000  1.0
  K  K11  1  0.78390000  0.21610000  0.71610000  1.0
  Sb  Sb12  1  0.48544000  0.01456000  0.98544000  1.0
  Sb  Sb13  1  0.01456000  0.98544000  0.48544000  1.0
  Sb  Sb14  1  0.98544000  0.48544000  0.01456000  1.0
  Sb  Sb15  1  0.51456000  0.51456000  0.51456000  1.0
  O  O16  1  0.49490000  0.78920000  0.93910000  1.0
  O  O17  1  0.99490000  0.71080000  0.06090000  1.0
  O  O18  1  0.50510000  0.28920000  0.56090000  1.0
  O  O19  1  0.71080000  0.06090000  0.99490000  1.0
  O  O20  1  0.78920000  0.93910000  0.49490000  1.0
  O  O21  1  0.93910000  0.49490000  0.78920000  1.0
  O  O22  1  0.28920000  0.56090000  0.50510000  1.0
  O  O23  1  0.21080000  0.43910000  0.00510000  1.0
  O  O24  1  0.43910000  0.00510000  0.21080000  1.0
  O  O25  1  0.00510000  0.21080000  0.43910000  1.0
  O  O26  1  0.56090000  0.50510000  0.28920000  1.0
  O  O27  1  0.06090000  0.99490000  0.71080000  1.0
