# generated using pymatgen
data_BaH4O3
_symmetry_space_group_name_H-M   'P 1'
_cell_length_a   3.89470000
_cell_length_b   6.36570000
_cell_length_c   6.95230000
_cell_angle_alpha   90.00000000
_cell_angle_beta   90.00000000
_cell_angle_gamma   90.00000000
_symmetry_Int_Tables_number   1
_chemical_formula_structural   BaH4O3
_chemical_formula_sum   'Ba2 H8 O6'
_cell_volume   172.36484067
_cell_formula_units_Z   2
loop_
 _symmetry_equiv_pos_site_id
 _symmetry_equiv_pos_as_xyz
  1  'x, y, z'
loop_
 _atom_site_type_symbol
 _atom_site_label
 _atom_site_symmetry_multiplicity
 _atom_site_fract_x
 _atom_site_fract_y
 _atom_site_fract_z
 _atom_site_occupancy
  Ba  Ba0  1  0.00000000  0.64450000  0.75000000  1.0
  Ba  Ba1  1  0.00000000  0.35550000  0.25000000  1.0
  H  H2  1  0.50000000  0.30800000  0.59900000  1.0
  H  H3  1  0.50000000  0.69200000  0.09900000  1.0
  H  H4  1  0.50000000  0.98300000  0.59200000  1.0
  H  H5  1  0.50000000  0.01700000  0.09200000  1.0
  H  H6  1  0.20100000  0.12560000  0.81500000  1.0
  H  H7  1  0.79900000  0.87440000  0.31500000  1.0
  H  H8  1  0.20100000  0.87440000  0.31500000  1.0
  H  H9  1  0.79900000  0.12560000  0.81500000  1.0
  O  O10  1  0.00000000  0.20760000  0.86300000  1.0
  O  O11  1  0.50000000  0.56400000  0.03190000  1.0
  O  O12  1  0.50000000  0.96070000  0.72600000  1.0
  O  O13  1  0.50000000  0.03930000  0.22600000  1.0
  O  O14  1  0.00000000  0.79240000  0.36300000  1.0
  O  O15  1  0.50000000  0.43600000  0.53190000  1.0
