# generated using pymatgen
data_Rb2Be2Si2O7
_symmetry_space_group_name_H-M   'P 1'
_cell_length_a   5.15000000
_cell_length_b   8.32000000
_cell_length_c   8.92000000
_cell_angle_alpha   90.00000000
_cell_angle_beta   90.00000000
_cell_angle_gamma   90.00000000
_symmetry_Int_Tables_number   1
_chemical_formula_structural   Rb2Be2Si2O7
_chemical_formula_sum   'Rb4 Be4 Si4 O14'
_cell_volume   382.20416000
_cell_formula_units_Z   2
loop_
 _symmetry_equiv_pos_site_id
 _symmetry_equiv_pos_as_xyz
  1  'x, y, z'
loop_
 _atom_site_type_symbol
 _atom_site_label
 _atom_site_symmetry_multiplicity
 _atom_site_fract_x
 _atom_site_fract_y
 _atom_site_fract_z
 _atom_site_occupancy
  Rb  Rb0  1  0.50000000  0.00000000  0.44100000  1.0
  Rb  Rb1  1  0.00000000  0.00000000  0.00000000  1.0
  Rb  Rb2  1  0.00000000  0.50000000  0.94100000  1.0
  Rb  Rb3  1  0.50000000  0.50000000  0.50000000  1.0
  Be  Be4  1  0.50000000  0.24140000  0.81500000  1.0
  Be  Be5  1  0.00000000  0.74140000  0.31500000  1.0
  Be  Be6  1  0.00000000  0.25860000  0.31500000  1.0
  Be  Be7  1  0.50000000  0.75860000  0.81500000  1.0
  Si  Si8  1  0.98970000  0.80350000  0.64050000  1.0
  Si  Si9  1  0.01030000  0.19650000  0.64050000  1.0
  Si  Si10  1  0.51030000  0.30350000  0.14050000  1.0
  Si  Si11  1  0.48970000  0.69650000  0.14050000  1.0
  O  O12  1  0.26560000  0.75170000  0.69500000  1.0
  O  O13  1  0.06970000  0.26310000  0.47960000  1.0
  O  O14  1  0.28230000  0.75060000  0.26200000  1.0
  O  O15  1  0.71770000  0.24940000  0.26200000  1.0
  O  O16  1  0.73440000  0.24830000  0.69500000  1.0
  O  O17  1  0.00000000  0.00000000  0.62560000  1.0
  O  O18  1  0.78230000  0.74940000  0.76200000  1.0
  O  O19  1  0.93030000  0.73690000  0.47960000  1.0
  O  O20  1  0.50000000  0.50000000  0.12560000  1.0
  O  O21  1  0.56970000  0.23690000  0.97960000  1.0
  O  O22  1  0.23440000  0.25170000  0.19500000  1.0
  O  O23  1  0.21770000  0.25060000  0.76200000  1.0
  O  O24  1  0.43030000  0.76310000  0.97960000  1.0
  O  O25  1  0.76560000  0.74830000  0.19500000  1.0
