# generated using pymatgen
data_CsBeAsO4
_symmetry_space_group_name_H-M   'P 1'
_cell_length_a   9.34200000
_cell_length_b   8.82100000
_cell_length_c   5.16600000
_cell_angle_alpha   90.00000000
_cell_angle_beta   90.00000000
_cell_angle_gamma   90.00000000
_symmetry_Int_Tables_number   1
_chemical_formula_structural   CsBeAsO4
_chemical_formula_sum   'Cs4 Be4 As4 O16'
_cell_volume   425.70826981
_cell_formula_units_Z   4
loop_
 _symmetry_equiv_pos_site_id
 _symmetry_equiv_pos_as_xyz
  1  'x, y, z'
loop_
 _atom_site_type_symbol
 _atom_site_label
 _atom_site_symmetry_multiplicity
 _atom_site_fract_x
 _atom_site_fract_y
 _atom_site_fract_z
 _atom_site_occupancy
  Cs  Cs0  1  0.49389000  0.31900000  0.50000000  1.0
  Cs  Cs1  1  0.50611000  0.68100000  0.00000000  1.0
  Cs  Cs2  1  0.99389000  0.18100000  0.50000000  1.0
  Cs  Cs3  1  0.00611000  0.81900000  0.00000000  1.0
  Be  Be4  1  0.32800000  0.09500000  0.00300000  1.0
  Be  Be5  1  0.17200000  0.59500000  0.50300000  1.0
  Be  Be6  1  0.82800000  0.40500000  0.00300000  1.0
  Be  Be7  1  0.67200000  0.90500000  0.50300000  1.0
  As  As8  1  0.32520000  0.91500000  0.50700000  1.0
  As  As9  1  0.67480000  0.08500000  0.00700000  1.0
  As  As10  1  0.82520000  0.58500000  0.50700000  1.0
  As  As11  1  0.17480000  0.41500000  0.00700000  1.0
  O  O12  1  0.50100000  0.12300000  0.01400000  1.0
  O  O13  1  0.99900000  0.62300000  0.51400000  1.0
  O  O14  1  0.00100000  0.37700000  0.01400000  1.0
  O  O15  1  0.49900000  0.87700000  0.51400000  1.0
  O  O16  1  0.22600000  0.46400000  0.69300000  1.0
  O  O17  1  0.77400000  0.53600000  0.19300000  1.0
  O  O18  1  0.72600000  0.03600000  0.69300000  1.0
  O  O19  1  0.27400000  0.96400000  0.19300000  1.0
  O  O20  1  0.23800000  0.75900000  0.58300000  1.0
  O  O21  1  0.76200000  0.24100000  0.08300000  1.0
  O  O22  1  0.73800000  0.74100000  0.58300000  1.0
  O  O23  1  0.26200000  0.25900000  0.08300000  1.0
  O  O24  1  0.77600000  0.44900000  0.70600000  1.0
  O  O25  1  0.22400000  0.55100000  0.20600000  1.0
  O  O26  1  0.27600000  0.05100000  0.70600000  1.0
  O  O27  1  0.72400000  0.94900000  0.20600000  1.0
