# generated using pymatgen
data_BaSi3SnO9
_symmetry_space_group_name_H-M   'P 1'
_cell_length_a   6.72800000
_cell_length_b   6.72800000
_cell_length_c   9.83800000
_cell_angle_alpha   90.00000000
_cell_angle_beta   90.00000000
_cell_angle_gamma   120.00000000
_symmetry_Int_Tables_number   1
_chemical_formula_structural   BaSi3SnO9
_chemical_formula_sum   'Ba2 Si6 Sn2 O18'
_cell_volume   385.66427900
_cell_formula_units_Z   2
loop_
 _symmetry_equiv_pos_site_id
 _symmetry_equiv_pos_as_xyz
  1  'x, y, z'
loop_
 _atom_site_type_symbol
 _atom_site_label
 _atom_site_symmetry_multiplicity
 _atom_site_fract_x
 _atom_site_fract_y
 _atom_site_fract_z
 _atom_site_occupancy
  Ba  Ba0  1  0.33333333  0.66666667  0.50000000  1.0
  Ba  Ba1  1  0.33333333  0.66666667  0.00000000  1.0
  Si  Si2  1  0.73666667  0.11833333  0.75000000  1.0
  Si  Si3  1  0.88166667  0.61833334  0.75000000  1.0
  Si  Si4  1  0.38166666  0.26333333  0.75000000  1.0
  Si  Si5  1  0.38166666  0.11833333  0.25000000  1.0
  Si  Si6  1  0.88166667  0.26333333  0.25000000  1.0
  Si  Si7  1  0.73666667  0.61833334  0.25000000  1.0
  Sn  Sn8  1  0.00000000  0.00000000  0.50000000  1.0
  Sn  Sn9  1  0.00000000  0.00000000  0.00000000  1.0
  O  O10  1  0.24266667  0.24633333  0.60900000  1.0
  O  O11  1  0.75366667  0.75733333  0.39100000  1.0
  O  O12  1  0.75366667  0.99633334  0.60900000  1.0
  O  O13  1  0.00366666  0.75733333  0.60900000  1.0
  O  O14  1  0.75366667  0.99633334  0.89100000  1.0
  O  O15  1  0.00366666  0.75733333  0.89100000  1.0
  O  O16  1  0.24266667  0.24633333  0.89100000  1.0
  O  O17  1  0.00366666  0.24633333  0.10900000  1.0
  O  O18  1  0.24266667  0.99633334  0.10900000  1.0
  O  O19  1  0.24266667  0.99633334  0.39100000  1.0
  O  O20  1  0.91666667  0.52433333  0.25000000  1.0
  O  O21  1  0.60766666  0.08333333  0.25000000  1.0
  O  O22  1  0.47566667  0.39233334  0.25000000  1.0
  O  O23  1  0.47566667  0.08333333  0.75000000  1.0
  O  O24  1  0.60766666  0.52433333  0.75000000  1.0
  O  O25  1  0.91666667  0.39233334  0.75000000  1.0
  O  O26  1  0.75366667  0.75733333  0.10900000  1.0
  O  O27  1  0.00366666  0.24633333  0.39100000  1.0
