# generated using pymatgen
data_P2O5
_symmetry_space_group_name_H-M   'P 1'
_cell_length_a   7.46109776
_cell_length_b   7.46109776
_cell_length_c   7.46109776
_cell_angle_alpha   87.33646928
_cell_angle_beta   87.33646928
_cell_angle_gamma   87.33646928
_symmetry_Int_Tables_number   1
_chemical_formula_structural   P2O5
_chemical_formula_sum   'P8 O20'
_cell_volume   414.03845178
_cell_formula_units_Z   4
loop_
 _symmetry_equiv_pos_site_id
 _symmetry_equiv_pos_as_xyz
  1  'x, y, z'
loop_
 _atom_site_type_symbol
 _atom_site_label
 _atom_site_symmetry_multiplicity
 _atom_site_fract_x
 _atom_site_fract_y
 _atom_site_fract_z
 _atom_site_occupancy
  P  P20  1  0.87550000  0.18750000  0.05370000  1.0
  P  P21  1  0.37550000  0.55370000  0.68750000  1.0
  P  P22  1  0.37000000  0.37000000  0.37000000  1.0
  P  P23  1  0.68750000  0.37550000  0.55370000  1.0
  P  P24  1  0.87000000  0.87000000  0.87000000  1.0
  P  P25  1  0.05370000  0.87550000  0.18750000  1.0
  P  P26  1  0.18750000  0.05370000  0.87550000  1.0
  P  P27  1  0.55370000  0.68750000  0.37550000  1.0
  O  O0  1  0.27600000  0.43650000  0.55200000  1.0
  O  O1  1  0.55770000  0.43900000  0.71570000  1.0
  O  O2  1  0.21570000  0.93900000  0.05770000  1.0
  O  O3  1  0.77600000  0.05200000  0.93650000  1.0
  O  O4  1  0.26390000  0.26390000  0.26390000  1.0
  O  O5  1  0.77410000  0.34710000  0.10110000  1.0
  O  O6  1  0.93650000  0.77600000  0.05200000  1.0
  O  O7  1  0.10110000  0.77410000  0.34710000  1.0
  O  O8  1  0.71570000  0.55770000  0.43900000  1.0
  O  O9  1  0.55200000  0.27600000  0.43650000  1.0
  O  O10  1  0.34710000  0.10110000  0.77410000  1.0
  O  O11  1  0.43900000  0.71570000  0.55770000  1.0
  O  O12  1  0.27410000  0.60110000  0.84710000  1.0
  O  O13  1  0.76390000  0.76390000  0.76390000  1.0
  O  O14  1  0.05200000  0.93650000  0.77600000  1.0
  O  O15  1  0.93900000  0.05770000  0.21570000  1.0
  O  O16  1  0.60110000  0.84710000  0.27410000  1.0
  O  O17  1  0.84710000  0.27410000  0.60110000  1.0
  O  O18  1  0.05770000  0.21570000  0.93900000  1.0
  O  O19  1  0.43650000  0.55200000  0.27600000  1.0
