# generated using pymatgen
data_BiSeClO3
_symmetry_space_group_name_H-M   'P 1'
_cell_length_a   6.35300000
_cell_length_b   7.97800000
_cell_length_c   8.65100000
_cell_angle_alpha   90.00000000
_cell_angle_beta   90.00000000
_cell_angle_gamma   90.00000000
_symmetry_Int_Tables_number   1
_chemical_formula_structural   BiSeClO3
_chemical_formula_sum   'Bi4 Se4 Cl4 O12'
_cell_volume   438.46930833
_cell_formula_units_Z   4
loop_
 _symmetry_equiv_pos_site_id
 _symmetry_equiv_pos_as_xyz
  1  'x, y, z'
loop_
 _atom_site_type_symbol
 _atom_site_label
 _atom_site_symmetry_multiplicity
 _atom_site_fract_x
 _atom_site_fract_y
 _atom_site_fract_z
 _atom_site_occupancy
  Bi  Bi0  1  0.95920000  0.80949000  0.82915000  1.0
  Bi  Bi1  1  0.45920000  0.69051000  0.17085000  1.0
  Bi  Bi2  1  0.54080000  0.19051000  0.32915000  1.0
  Bi  Bi3  1  0.04080000  0.30949000  0.67085000  1.0
  Se  Se4  1  0.85720000  0.90270000  0.44730000  1.0
  Se  Se5  1  0.35720000  0.59730000  0.55270000  1.0
  Se  Se6  1  0.14280000  0.40270000  0.05270000  1.0
  Se  Se7  1  0.64280000  0.09730000  0.94730000  1.0
  Cl  Cl8  1  0.76230000  0.47690000  0.35140000  1.0
  Cl  Cl9  1  0.23770000  0.97690000  0.14860000  1.0
  Cl  Cl10  1  0.73770000  0.52310000  0.85140000  1.0
  Cl  Cl11  1  0.26230000  0.02310000  0.64860000  1.0
  O  O12  1  0.13120000  0.61280000  0.65080000  1.0
  O  O13  1  0.15390000  0.62110000  0.04240000  1.0
  O  O14  1  0.27170000  0.65440000  0.37310000  1.0
  O  O15  1  0.63120000  0.88720000  0.34920000  1.0
  O  O16  1  0.77170000  0.84560000  0.62690000  1.0
  O  O17  1  0.34610000  0.37890000  0.54240000  1.0
  O  O18  1  0.72830000  0.15440000  0.12690000  1.0
  O  O19  1  0.84610000  0.12110000  0.45760000  1.0
  O  O20  1  0.65390000  0.87890000  0.95760000  1.0
  O  O21  1  0.86880000  0.11280000  0.84920000  1.0
  O  O22  1  0.36880000  0.38720000  0.15080000  1.0
  O  O23  1  0.22830000  0.34560000  0.87310000  1.0
