# generated using pymatgen
data_SiO2
_symmetry_space_group_name_H-M   'P 1'
_cell_length_a   7.13000000
_cell_length_b   7.13000000
_cell_length_c   7.13000000
_cell_angle_alpha   90.00000000
_cell_angle_beta   90.00000000
_cell_angle_gamma   90.00000000
_symmetry_Int_Tables_number   1
_chemical_formula_structural   SiO2
_chemical_formula_sum   'Si8 O16'
_cell_volume   362.46709700
_cell_formula_units_Z   8
loop_
 _symmetry_equiv_pos_site_id
 _symmetry_equiv_pos_as_xyz
  1  'x, y, z'
loop_
 _atom_site_type_symbol
 _atom_site_label
 _atom_site_symmetry_multiplicity
 _atom_site_fract_x
 _atom_site_fract_y
 _atom_site_fract_z
 _atom_site_occupancy
  Si  Si0  1  0.98160000  0.51840000  0.48160000  1.0
  Si  Si1  1  0.51840000  0.48160000  0.98160000  1.0
  Si  Si2  1  0.48160000  0.98160000  0.51840000  1.0
  Si  Si3  1  0.01840000  0.01840000  0.01840000  1.0
  Si  Si4  1  0.72420000  0.77580000  0.22420000  1.0
  Si  Si5  1  0.77580000  0.22420000  0.72420000  1.0
  Si  Si6  1  0.22420000  0.72420000  0.77580000  1.0
  Si  Si7  1  0.27580000  0.27580000  0.27580000  1.0
  O  O8  1  0.86090000  0.34480000  0.55570000  1.0
  O  O9  1  0.36090000  0.15520000  0.44430000  1.0
  O  O10  1  0.13910000  0.84480000  0.94430000  1.0
  O  O11  1  0.15520000  0.44430000  0.36090000  1.0
  O  O12  1  0.94430000  0.13910000  0.84480000  1.0
  O  O13  1  0.44430000  0.36090000  0.15520000  1.0
  O  O14  1  0.34480000  0.55570000  0.86090000  1.0
  O  O15  1  0.55570000  0.86090000  0.34480000  1.0
  O  O16  1  0.14700000  0.14700000  0.14700000  1.0
  O  O17  1  0.35300000  0.85300000  0.64700000  1.0
  O  O18  1  0.64700000  0.35300000  0.85300000  1.0
  O  O19  1  0.85300000  0.64700000  0.35300000  1.0
  O  O20  1  0.63910000  0.65520000  0.05570000  1.0
  O  O21  1  0.05570000  0.63910000  0.65520000  1.0
  O  O22  1  0.65520000  0.05570000  0.63910000  1.0
  O  O23  1  0.84480000  0.94430000  0.13910000  1.0
