# generated using pymatgen
data_Sr4Al6TeO12
_symmetry_space_group_name_H-M   'P 1'
_cell_length_a   8.11849453
_cell_length_b   8.11849453
_cell_length_c   8.11849453
_cell_angle_alpha   109.47122063
_cell_angle_beta   109.47122063
_cell_angle_gamma   109.47122063
_symmetry_Int_Tables_number   1
_chemical_formula_structural   Sr4Al6TeO12
_chemical_formula_sum   'Sr4 Al6 Te1 O12'
_cell_volume   411.91216345
_cell_formula_units_Z   1
loop_
 _symmetry_equiv_pos_site_id
 _symmetry_equiv_pos_as_xyz
  1  'x, y, z'
loop_
 _atom_site_type_symbol
 _atom_site_label
 _atom_site_symmetry_multiplicity
 _atom_site_fract_x
 _atom_site_fract_y
 _atom_site_fract_z
 _atom_site_occupancy
  Sr  Sr18  1  0.58670000  0.58670000  0.58670000  1.0
  Sr  Sr19  1  0.00000000  0.41330000  0.00000000  1.0
  Sr  Sr20  1  0.41330000  0.00000000  0.00000000  1.0
  Sr  Sr21  1  0.00000000  0.00000000  0.41330000  1.0
  Al  Al0  1  0.75000000  0.25000000  0.50000000  1.0
  Al  Al1  1  0.25000000  0.75000000  0.50000000  1.0
  Al  Al2  1  0.50000000  0.25000000  0.75000000  1.0
  Al  Al3  1  0.50000000  0.75000000  0.25000000  1.0
  Al  Al4  1  0.75000000  0.50000000  0.25000000  1.0
  Al  Al5  1  0.25000000  0.50000000  0.75000000  1.0
  Te  Te22  1  0.00000000  0.00000000  0.00000000  1.0
  O  O6  1  0.30991000  0.00000000  0.62245000  1.0
  O  O7  1  0.68746000  0.37755000  0.37755000  1.0
  O  O8  1  0.62245000  0.00000000  0.30991000  1.0
  O  O9  1  0.62245000  0.30991000  0.00000000  1.0
  O  O10  1  0.69009000  0.69009000  0.31254000  1.0
  O  O11  1  0.69009000  0.31254000  0.69009000  1.0
  O  O12  1  0.31254000  0.69009000  0.69009000  1.0
  O  O13  1  0.00000000  0.62245000  0.30991000  1.0
  O  O14  1  0.00000000  0.30991000  0.62245000  1.0
  O  O15  1  0.37755000  0.37755000  0.68746000  1.0
  O  O16  1  0.30991000  0.62245000  0.00000000  1.0
  O  O17  1  0.37755000  0.68746000  0.37755000  1.0
