# generated using pymatgen
data_BaSn(GeO3)3
_symmetry_space_group_name_H-M   'P 1'
_cell_length_a   6.89399994
_cell_length_b   6.89399994
_cell_length_c   10.23300000
_cell_angle_alpha   90.00000000
_cell_angle_beta   90.00000000
_cell_angle_gamma   120.00000000
_symmetry_Int_Tables_number   1
_chemical_formula_structural   BaSn(GeO3)3
_chemical_formula_sum   'Ba2 Sn2 Ge6 O18'
_cell_volume   421.18816209
_cell_formula_units_Z   2
loop_
 _symmetry_equiv_pos_site_id
 _symmetry_equiv_pos_as_xyz
  1  'x, y, z'
loop_
 _atom_site_type_symbol
 _atom_site_label
 _atom_site_symmetry_multiplicity
 _atom_site_fract_x
 _atom_site_fract_y
 _atom_site_fract_z
 _atom_site_occupancy
  Ba  Ba0  1  0.66666667  0.33333333  0.00000000  1.0
  Ba  Ba1  1  0.66666667  0.33333333  0.50000000  1.0
  Sn  Sn2  1  0.33333333  0.66666667  0.00000000  1.0
  Sn  Sn3  1  0.33333333  0.66666667  0.50000000  1.0
  Ge  Ge4  1  0.07199967  0.29500033  0.25000000  1.0
  Ge  Ge5  1  0.22300067  0.92800033  0.25000000  1.0
  Ge  Ge6  1  0.70499967  0.77699933  0.25000000  1.0
  Ge  Ge7  1  0.70499967  0.92800033  0.75000000  1.0
  Ge  Ge8  1  0.22300067  0.29500033  0.75000000  1.0
  Ge  Ge9  1  0.07199967  0.77699933  0.75000000  1.0
  O  O10  1  0.25799967  0.19700033  0.25000000  1.0
  O  O11  1  0.93900067  0.74200033  0.25000000  1.0
  O  O12  1  0.80299967  0.06099933  0.25000000  1.0
  O  O13  1  0.80299967  0.74200033  0.75000000  1.0
  O  O14  1  0.93900067  0.19700033  0.75000000  1.0
  O  O15  1  0.25799967  0.06099933  0.75000000  1.0
  O  O16  1  0.08999967  0.43900033  0.10900000  1.0
  O  O17  1  0.34900067  0.91000033  0.39100000  1.0
  O  O18  1  0.56099967  0.65099933  0.39100000  1.0
  O  O19  1  0.56099967  0.65099933  0.10900000  1.0
  O  O20  1  0.34900067  0.91000033  0.10900000  1.0
  O  O21  1  0.56099967  0.91000033  0.89100000  1.0
  O  O22  1  0.34900067  0.43900033  0.89100000  1.0
  O  O23  1  0.08999967  0.65099933  0.89100000  1.0
  O  O24  1  0.34900067  0.43900033  0.60900000  1.0
  O  O25  1  0.08999967  0.65099933  0.60900000  1.0
  O  O26  1  0.08999967  0.43900033  0.39100000  1.0
  O  O27  1  0.56099967  0.91000033  0.60900000  1.0
