# generated using pymatgen
data_Rb3BiO3
_symmetry_space_group_name_H-M   'P 1'
_cell_length_a   8.75480000
_cell_length_b   8.75480000
_cell_length_c   8.75480000
_cell_angle_alpha   90.00000000
_cell_angle_beta   90.00000000
_cell_angle_gamma   90.00000000
_symmetry_Int_Tables_number   1
_chemical_formula_structural   Rb3BiO3
_chemical_formula_sum   'Rb12 Bi4 O12'
_cell_volume   671.02497991
_cell_formula_units_Z   4
loop_
 _symmetry_equiv_pos_site_id
 _symmetry_equiv_pos_as_xyz
  1  'x, y, z'
loop_
 _atom_site_type_symbol
 _atom_site_label
 _atom_site_symmetry_multiplicity
 _atom_site_fract_x
 _atom_site_fract_y
 _atom_site_fract_z
 _atom_site_occupancy
  Rb  Rb0  1  0.28605000  0.28605000  0.28605000  1.0
  Rb  Rb1  1  0.21395000  0.71395000  0.78605000  1.0
  Rb  Rb2  1  0.78605000  0.21395000  0.71395000  1.0
  Rb  Rb3  1  0.71395000  0.78605000  0.21395000  1.0
  Rb  Rb4  1  0.70888000  0.20888000  0.29112000  1.0
  Rb  Rb5  1  0.79112000  0.79112000  0.79112000  1.0
  Rb  Rb6  1  0.97263000  0.52737000  0.47263000  1.0
  Rb  Rb7  1  0.52737000  0.47263000  0.97263000  1.0
  Rb  Rb8  1  0.47263000  0.97263000  0.52737000  1.0
  Rb  Rb9  1  0.02737000  0.02737000  0.02737000  1.0
  Rb  Rb10  1  0.20888000  0.29112000  0.70888000  1.0
  Rb  Rb11  1  0.29112000  0.70888000  0.20888000  1.0
  Bi  Bi12  1  0.48283000  0.01717000  0.98283000  1.0
  Bi  Bi13  1  0.01717000  0.98283000  0.48283000  1.0
  Bi  Bi14  1  0.98283000  0.48283000  0.01717000  1.0
  Bi  Bi15  1  0.51717000  0.51717000  0.51717000  1.0
  O  O16  1  0.43710000  0.00360000  0.21230000  1.0
  O  O17  1  0.93710000  0.49640000  0.78770000  1.0
  O  O18  1  0.56290000  0.50360000  0.28770000  1.0
  O  O19  1  0.49640000  0.78770000  0.93710000  1.0
  O  O20  1  0.00360000  0.21230000  0.43710000  1.0
  O  O21  1  0.21230000  0.43710000  0.00360000  1.0
  O  O22  1  0.50360000  0.28770000  0.56290000  1.0
  O  O23  1  0.99640000  0.71230000  0.06290000  1.0
  O  O24  1  0.71230000  0.06290000  0.99640000  1.0
  O  O25  1  0.06290000  0.99640000  0.71230000  1.0
  O  O26  1  0.28770000  0.56290000  0.50360000  1.0
  O  O27  1  0.78770000  0.93710000  0.49640000  1.0
