# generated using pymatgen
data_Cs3SbO3
_symmetry_space_group_name_H-M   'P 1'
_cell_length_a   9.13690000
_cell_length_b   9.13690000
_cell_length_c   9.13690000
_cell_angle_alpha   90.00000000
_cell_angle_beta   90.00000000
_cell_angle_gamma   90.00000000
_symmetry_Int_Tables_number   1
_chemical_formula_structural   Cs3SbO3
_chemical_formula_sum   'Cs12 Sb4 O12'
_cell_volume   762.77528920
_cell_formula_units_Z   4
loop_
 _symmetry_equiv_pos_site_id
 _symmetry_equiv_pos_as_xyz
  1  'x, y, z'
loop_
 _atom_site_type_symbol
 _atom_site_label
 _atom_site_symmetry_multiplicity
 _atom_site_fract_x
 _atom_site_fract_y
 _atom_site_fract_z
 _atom_site_occupancy
  Cs  Cs0  1  0.27732000  0.72268000  0.22268000  1.0
  Cs  Cs1  1  0.48145000  0.98145000  0.51855000  1.0
  Cs  Cs2  1  0.22268000  0.27732000  0.72268000  1.0
  Cs  Cs3  1  0.01855000  0.01855000  0.01855000  1.0
  Cs  Cs4  1  0.77318000  0.22682000  0.72682000  1.0
  Cs  Cs5  1  0.72682000  0.77318000  0.22682000  1.0
  Cs  Cs6  1  0.51855000  0.48145000  0.98145000  1.0
  Cs  Cs7  1  0.98145000  0.51855000  0.48145000  1.0
  Cs  Cs8  1  0.22682000  0.72682000  0.77318000  1.0
  Cs  Cs9  1  0.72268000  0.22268000  0.27732000  1.0
  Cs  Cs10  1  0.77732000  0.77732000  0.77732000  1.0
  Cs  Cs11  1  0.27318000  0.27318000  0.27318000  1.0
  Sb  Sb12  1  0.50362000  0.50362000  0.50362000  1.0
  Sb  Sb13  1  0.99638000  0.49638000  0.00362000  1.0
  Sb  Sb14  1  0.49638000  0.00362000  0.99638000  1.0
  Sb  Sb15  1  0.00362000  0.99638000  0.49638000  1.0
  O  O16  1  0.45920000  0.00550000  0.20410000  1.0
  O  O17  1  0.70410000  0.04080000  0.99450000  1.0
  O  O18  1  0.00550000  0.20410000  0.45920000  1.0
  O  O19  1  0.95920000  0.49450000  0.79590000  1.0
  O  O20  1  0.04080000  0.99450000  0.70410000  1.0
  O  O21  1  0.49450000  0.79590000  0.95920000  1.0
  O  O22  1  0.79590000  0.95920000  0.49450000  1.0
  O  O23  1  0.20410000  0.45920000  0.00550000  1.0
  O  O24  1  0.99450000  0.70410000  0.04080000  1.0
  O  O25  1  0.54080000  0.50550000  0.29590000  1.0
  O  O26  1  0.29590000  0.54080000  0.50550000  1.0
  O  O27  1  0.50550000  0.29590000  0.54080000  1.0
