# generated using pymatgen
data_BeSiN2
_symmetry_space_group_name_H-M   'P 1'
_cell_length_a   4.97700000
_cell_length_b   5.74700000
_cell_length_c   4.67400000
_cell_angle_alpha   90.00000000
_cell_angle_beta   90.00000000
_cell_angle_gamma   90.00000000
_symmetry_Int_Tables_number   1
_chemical_formula_structural   BeSiN2
_chemical_formula_sum   'Be4 Si4 N8'
_cell_volume   133.68957601
_cell_formula_units_Z   4
loop_
 _symmetry_equiv_pos_site_id
 _symmetry_equiv_pos_as_xyz
  1  'x, y, z'
loop_
 _atom_site_type_symbol
 _atom_site_label
 _atom_site_symmetry_multiplicity
 _atom_site_fract_x
 _atom_site_fract_y
 _atom_site_fract_z
 _atom_site_occupancy
  Be  Be0  1  0.08300000  0.62500000  0.00000000  1.0
  Be  Be1  1  0.91700000  0.37500000  0.50000000  1.0
  Be  Be2  1  0.41700000  0.12500000  0.50000000  1.0
  Be  Be3  1  0.58300000  0.87500000  0.00000000  1.0
  Si  Si4  1  0.08300000  0.12500000  0.00000000  1.0
  Si  Si5  1  0.58300000  0.37500000  0.00000000  1.0
  Si  Si6  1  0.41700000  0.62500000  0.50000000  1.0
  Si  Si7  1  0.91700000  0.87500000  0.50000000  1.0
  N  N8  1  0.58300000  0.87500000  0.37600000  1.0
  N  N9  1  0.08300000  0.12500000  0.37600000  1.0
  N  N10  1  0.41700000  0.12500000  0.87600000  1.0
  N  N11  1  0.91700000  0.37500000  0.87600000  1.0
  N  N12  1  0.41700000  0.62500000  0.87600000  1.0
  N  N13  1  0.91700000  0.87500000  0.87600000  1.0
  N  N14  1  0.58300000  0.37500000  0.37600000  1.0
  N  N15  1  0.08300000  0.62500000  0.37600000  1.0
