# generated using pymatgen
data_KCa(PO3)3
_symmetry_space_group_name_H-M   'P 1'
_cell_length_a   6.80900000
_cell_length_b   6.80900000
_cell_length_c   10.37600000
_cell_angle_alpha   90.00000000
_cell_angle_beta   90.00000000
_cell_angle_gamma   120.00000000
_symmetry_Int_Tables_number   1
_chemical_formula_structural   KCa(PO3)3
_chemical_formula_sum   'K2 Ca2 P6 O18'
_cell_volume   416.60767174
_cell_formula_units_Z   2
loop_
 _symmetry_equiv_pos_site_id
 _symmetry_equiv_pos_as_xyz
  1  'x, y, z'
loop_
 _atom_site_type_symbol
 _atom_site_label
 _atom_site_symmetry_multiplicity
 _atom_site_fract_x
 _atom_site_fract_y
 _atom_site_fract_z
 _atom_site_occupancy
  K  K0  1  0.33333333  0.66666667  0.50000000  1.0
  K  K1  1  0.33333333  0.66666667  0.00000000  1.0
  Ca  Ca2  1  0.00000000  0.00000000  0.50000000  1.0
  Ca  Ca3  1  0.00000000  0.00000000  0.00000000  1.0
  P  P4  1  0.39887666  0.10366334  0.25000000  1.0
  P  P5  1  0.89633666  0.29521333  0.25000000  1.0
  P  P6  1  0.70478667  0.60112334  0.25000000  1.0
  P  P7  1  0.70478667  0.10366334  0.75000000  1.0
  P  P8  1  0.89633666  0.60112334  0.75000000  1.0
  P  P9  1  0.39887666  0.29521333  0.75000000  1.0
  O  O10  1  0.71806666  0.71923334  0.37205000  1.0
  O  O11  1  0.28076666  0.28193334  0.62795000  1.0
  O  O12  1  0.28076666  0.99883333  0.37205000  1.0
  O  O13  1  0.00116667  0.28193334  0.37205000  1.0
  O  O14  1  0.28076666  0.99883333  0.12795000  1.0
  O  O15  1  0.00116667  0.28193334  0.12795000  1.0
  O  O16  1  0.71806666  0.71923334  0.12795000  1.0
  O  O17  1  0.00116667  0.71923334  0.87205000  1.0
  O  O18  1  0.71806666  0.99883333  0.87205000  1.0
  O  O19  1  0.71806666  0.99883333  0.62795000  1.0
  O  O20  1  0.47206666  0.10673334  0.75000000  1.0
  O  O21  1  0.63466667  0.52793334  0.75000000  1.0
  O  O22  1  0.89326666  0.36533333  0.75000000  1.0
  O  O23  1  0.89326666  0.52793334  0.25000000  1.0
  O  O24  1  0.63466667  0.10673334  0.25000000  1.0
  O  O25  1  0.47206666  0.36533333  0.25000000  1.0
  O  O26  1  0.28076666  0.28193334  0.87205000  1.0
  O  O27  1  0.00116667  0.71923334  0.62795000  1.0
