# generated using pymatgen
data_SbAsO5
_symmetry_space_group_name_H-M   'P 1'
_cell_length_a   4.90350000
_cell_length_b   8.75240000
_cell_length_c   9.16070000
_cell_angle_alpha   90.00000000
_cell_angle_beta   90.00000000
_cell_angle_gamma   90.00000000
_symmetry_Int_Tables_number   1
_chemical_formula_structural   SbAsO5
_chemical_formula_sum   'Sb4 As4 O20'
_cell_volume   393.15336572
_cell_formula_units_Z   4
loop_
 _symmetry_equiv_pos_site_id
 _symmetry_equiv_pos_as_xyz
  1  'x, y, z'
loop_
 _atom_site_type_symbol
 _atom_site_label
 _atom_site_symmetry_multiplicity
 _atom_site_fract_x
 _atom_site_fract_y
 _atom_site_fract_z
 _atom_site_occupancy
  Sb  Sb0  1  0.88100000  0.65240000  0.10340000  1.0
  Sb  Sb1  1  0.38100000  0.84760000  0.89660000  1.0
  Sb  Sb2  1  0.11900000  0.15240000  0.39660000  1.0
  Sb  Sb3  1  0.61900000  0.34760000  0.60340000  1.0
  As  As4  1  0.89300000  0.02800000  0.71250000  1.0
  As  As5  1  0.39300000  0.47200000  0.28750000  1.0
  As  As6  1  0.10700000  0.52800000  0.78750000  1.0
  As  As7  1  0.60700000  0.97200000  0.21250000  1.0
  O  O8  1  0.04800000  0.49900000  0.96600000  1.0
  O  O9  1  0.54800000  0.00100000  0.03400000  1.0
  O  O10  1  0.95200000  0.99900000  0.53400000  1.0
  O  O11  1  0.45200000  0.50100000  0.46600000  1.0
  O  O12  1  0.22100000  0.70100000  0.75000000  1.0
  O  O13  1  0.72100000  0.79900000  0.25000000  1.0
  O  O14  1  0.77900000  0.20100000  0.75000000  1.0
  O  O15  1  0.27900000  0.29900000  0.25000000  1.0
  O  O16  1  0.91000000  0.32300000  0.48400000  1.0
  O  O17  1  0.41000000  0.17700000  0.51600000  1.0
  O  O18  1  0.09000000  0.82300000  0.01600000  1.0
  O  O19  1  0.59000000  0.67700000  0.98400000  1.0
  O  O20  1  0.19500000  0.60900000  0.25000000  1.0
  O  O21  1  0.69500000  0.89100000  0.75000000  1.0
  O  O22  1  0.80500000  0.10900000  0.25000000  1.0
  O  O23  1  0.30500000  0.39100000  0.75000000  1.0
  O  O24  1  0.68800000  0.48200000  0.19600000  1.0
  O  O25  1  0.18800000  0.01800000  0.80400000  1.0
  O  O26  1  0.31200000  0.98200000  0.30400000  1.0
  O  O27  1  0.81200000  0.51800000  0.69600000  1.0
