# generated using pymatgen
data_Na3SbO3
_symmetry_space_group_name_H-M   'P 1'
_cell_length_a   8.28266696
_cell_length_b   8.28266696
_cell_length_c   8.28266696
_cell_angle_alpha   109.47122063
_cell_angle_beta   109.47122063
_cell_angle_gamma   109.47122063
_symmetry_Int_Tables_number   1
_chemical_formula_structural   Na3SbO3
_chemical_formula_sum   'Na12 Sb4 O12'
_cell_volume   437.40999886
_cell_formula_units_Z   4
loop_
 _symmetry_equiv_pos_site_id
 _symmetry_equiv_pos_as_xyz
  1  'x, y, z'
loop_
 _atom_site_type_symbol
 _atom_site_label
 _atom_site_symmetry_multiplicity
 _atom_site_fract_x
 _atom_site_fract_y
 _atom_site_fract_z
 _atom_site_occupancy
  Na  Na0  1  0.72680000  0.00000000  0.48020000  1.0
  Na  Na1  1  0.72680000  0.48020000  0.00000000  1.0
  Na  Na2  1  0.24660000  0.51980000  0.51980000  1.0
  Na  Na3  1  0.51980000  0.24660000  0.51980000  1.0
  Na  Na4  1  0.27320000  0.75340000  0.27320000  1.0
  Na  Na5  1  0.48020000  0.00000000  0.72680000  1.0
  Na  Na6  1  0.48020000  0.72680000  0.00000000  1.0
  Na  Na7  1  0.27320000  0.27320000  0.75340000  1.0
  Na  Na8  1  0.00000000  0.48020000  0.72680000  1.0
  Na  Na9  1  0.00000000  0.72680000  0.48020000  1.0
  Na  Na10  1  0.75340000  0.27320000  0.27320000  1.0
  Na  Na11  1  0.51980000  0.51980000  0.24660000  1.0
  Sb  Sb24  1  0.70840000  0.70840000  0.70840000  1.0
  Sb  Sb25  1  0.00000000  0.29160000  0.00000000  1.0
  Sb  Sb26  1  0.29160000  0.00000000  0.00000000  1.0
  Sb  Sb27  1  0.00000000  0.00000000  0.29160000  1.0
  O  O12  1  0.26920000  0.79150000  0.79150000  1.0
  O  O13  1  0.47770000  0.00000000  0.20850000  1.0
  O  O14  1  0.47770000  0.20850000  0.00000000  1.0
  O  O15  1  0.79150000  0.79150000  0.26920000  1.0
  O  O16  1  0.00000000  0.47770000  0.20850000  1.0
  O  O17  1  0.00000000  0.20850000  0.47770000  1.0
  O  O18  1  0.73080000  0.52230000  0.52230000  1.0
  O  O19  1  0.52230000  0.52230000  0.73080000  1.0
  O  O20  1  0.52230000  0.73080000  0.52230000  1.0
  O  O21  1  0.20850000  0.47770000  0.00000000  1.0
  O  O22  1  0.20850000  0.00000000  0.47770000  1.0
  O  O23  1  0.79150000  0.26920000  0.79150000  1.0
