# generated using pymatgen
data_H2SeO4
_symmetry_space_group_name_H-M   'P 1'
_cell_length_a   4.62330000
_cell_length_b   8.18070000
_cell_length_c   8.54160000
_cell_angle_alpha   90.00000000
_cell_angle_beta   90.00000000
_cell_angle_gamma   90.00000000
_symmetry_Int_Tables_number   1
_chemical_formula_structural   H2SeO4
_chemical_formula_sum   'H8 Se4 O16'
_cell_volume   323.05894578
_cell_formula_units_Z   4
loop_
 _symmetry_equiv_pos_site_id
 _symmetry_equiv_pos_as_xyz
  1  'x, y, z'
loop_
 _atom_site_type_symbol
 _atom_site_label
 _atom_site_symmetry_multiplicity
 _atom_site_fract_x
 _atom_site_fract_y
 _atom_site_fract_z
 _atom_site_occupancy
  H  H0  1  0.20800000  0.27200000  0.28500000  1.0
  H  H1  1  0.70800000  0.22800000  0.71500000  1.0
  H  H2  1  0.79200000  0.77200000  0.21500000  1.0
  H  H3  1  0.29200000  0.72800000  0.78500000  1.0
  H  H4  1  0.74000000  0.54200000  0.51100000  1.0
  H  H5  1  0.24000000  0.95800000  0.48900000  1.0
  H  H6  1  0.26000000  0.04200000  0.98900000  1.0
  H  H7  1  0.76000000  0.45800000  0.01100000  1.0
  Se  Se8  1  0.17500000  0.54200000  0.38200000  1.0
  Se  Se9  1  0.32500000  0.45800000  0.88200000  1.0
  Se  Se10  1  0.82500000  0.04200000  0.11800000  1.0
  Se  Se11  1  0.67500000  0.95800000  0.61800000  1.0
  O  O12  1  0.83400000  0.14600000  0.66500000  1.0
  O  O13  1  0.16600000  0.64600000  0.83500000  1.0
  O  O14  1  0.66600000  0.85400000  0.16500000  1.0
  O  O15  1  0.97300000  0.12000000  0.26400000  1.0
  O  O16  1  0.02700000  0.62000000  0.23600000  1.0
  O  O17  1  0.52700000  0.88000000  0.76400000  1.0
  O  O18  1  0.56300000  0.14800000  0.04000000  1.0
  O  O19  1  0.47300000  0.38000000  0.73600000  1.0
  O  O20  1  0.43700000  0.64800000  0.46000000  1.0
  O  O21  1  0.93700000  0.85200000  0.54000000  1.0
  O  O22  1  0.56800000  0.52100000  0.01400000  1.0
  O  O23  1  0.06300000  0.35200000  0.96000000  1.0
  O  O24  1  0.93200000  0.47900000  0.51400000  1.0
  O  O25  1  0.43200000  0.02100000  0.48600000  1.0
  O  O26  1  0.06800000  0.97900000  0.98600000  1.0
  O  O27  1  0.33400000  0.35400000  0.33500000  1.0
