# generated using pymatgen
data_Na2LiBe2F7
_symmetry_space_group_name_H-M   'P 1'
_cell_length_a   7.59300000
_cell_length_b   7.59300000
_cell_length_c   4.84100000
_cell_angle_alpha   90.00000000
_cell_angle_beta   90.00000000
_cell_angle_gamma   90.00000000
_symmetry_Int_Tables_number   1
_chemical_formula_structural   Na2LiBe2F7
_chemical_formula_sum   'Na4 Li2 Be4 F14'
_cell_volume   279.10131481
_cell_formula_units_Z   2
loop_
 _symmetry_equiv_pos_site_id
 _symmetry_equiv_pos_as_xyz
  1  'x, y, z'
loop_
 _atom_site_type_symbol
 _atom_site_label
 _atom_site_symmetry_multiplicity
 _atom_site_fract_x
 _atom_site_fract_y
 _atom_site_fract_z
 _atom_site_occupancy
  Na  Na0  1  0.66690000  0.83310000  0.49270000  1.0
  Na  Na1  1  0.83310000  0.33310000  0.50730000  1.0
  Na  Na2  1  0.16690000  0.66690000  0.50730000  1.0
  Na  Na3  1  0.33310000  0.16690000  0.49270000  1.0
  Li  Li4  1  0.50000000  0.50000000  0.00000000  1.0
  Li  Li5  1  0.00000000  0.00000000  0.00000000  1.0
  Be  Be6  1  0.35970000  0.85970000  0.93440000  1.0
  Be  Be7  1  0.14030000  0.35970000  0.06560000  1.0
  Be  Be8  1  0.64030000  0.14030000  0.93440000  1.0
  Be  Be9  1  0.85970000  0.64030000  0.06560000  1.0
  F  F10  1  0.68700000  0.58280000  0.19860000  1.0
  F  F11  1  0.31300000  0.41720000  0.19860000  1.0
  F  F12  1  0.58280000  0.31300000  0.80140000  1.0
  F  F13  1  0.41720000  0.68700000  0.80140000  1.0
  F  F14  1  0.50000000  0.00000000  0.82820000  1.0
  F  F15  1  0.00000000  0.50000000  0.17180000  1.0
  F  F16  1  0.14140000  0.35860000  0.75470000  1.0
  F  F17  1  0.35860000  0.85860000  0.24530000  1.0
  F  F18  1  0.64140000  0.14140000  0.24530000  1.0
  F  F19  1  0.85860000  0.64140000  0.75470000  1.0
  F  F20  1  0.81300000  0.08280000  0.80140000  1.0
  F  F21  1  0.08280000  0.18700000  0.19860000  1.0
  F  F22  1  0.91720000  0.81300000  0.19860000  1.0
  F  F23  1  0.18700000  0.91720000  0.80140000  1.0
