# generated using pymatgen
data_Rb3SbO3
_symmetry_space_group_name_H-M   'P 1'
_cell_length_a   8.93535800
_cell_length_b   8.93535800
_cell_length_c   8.93535800
_cell_angle_alpha   90.00000000
_cell_angle_beta   90.00000000
_cell_angle_gamma   90.00000000
_symmetry_Int_Tables_number   1
_chemical_formula_structural   Rb3SbO3
_chemical_formula_sum   'Rb12 Sb4 O12'
_cell_volume   713.40454577
_cell_formula_units_Z   4
loop_
 _symmetry_equiv_pos_site_id
 _symmetry_equiv_pos_as_xyz
  1  'x, y, z'
loop_
 _atom_site_type_symbol
 _atom_site_label
 _atom_site_symmetry_multiplicity
 _atom_site_fract_x
 _atom_site_fract_y
 _atom_site_fract_z
 _atom_site_occupancy
  Rb  Rb0  1  0.02659900  0.02659900  0.02659900  1.0
  Rb  Rb1  1  0.21180200  0.28819800  0.71180200  1.0
  Rb  Rb2  1  0.21736300  0.71736300  0.78263700  1.0
  Rb  Rb3  1  0.28263700  0.28263700  0.28263700  1.0
  Rb  Rb4  1  0.28819800  0.71180200  0.21180200  1.0
  Rb  Rb5  1  0.47340100  0.97340100  0.52659900  1.0
  Rb  Rb6  1  0.52659900  0.47340100  0.97340100  1.0
  Rb  Rb7  1  0.71180200  0.21180200  0.28819800  1.0
  Rb  Rb8  1  0.71736300  0.78263700  0.21736300  1.0
  Rb  Rb9  1  0.78263700  0.21736300  0.71736300  1.0
  Rb  Rb10  1  0.78819800  0.78819800  0.78819800  1.0
  Rb  Rb11  1  0.97340100  0.52659900  0.47340100  1.0
  Sb  Sb12  1  0.01085600  0.98914400  0.48914400  1.0
  Sb  Sb13  1  0.48914400  0.01085600  0.98914400  1.0
  Sb  Sb14  1  0.51085600  0.51085600  0.51085600  1.0
  Sb  Sb15  1  0.98914400  0.48914400  0.01085600  1.0
  O  O16  1  0.00468900  0.20559300  0.44165000  1.0
  O  O17  1  0.05835000  0.99531100  0.70559300  1.0
  O  O18  1  0.20559300  0.44165000  0.00468900  1.0
  O  O19  1  0.29440700  0.55835000  0.50468900  1.0
  O  O20  1  0.44165000  0.00468900  0.20559300  1.0
  O  O21  1  0.49531100  0.79440700  0.94165000  1.0
  O  O22  1  0.50468900  0.29440700  0.55835000  1.0
  O  O23  1  0.55835000  0.50468900  0.29440700  1.0
  O  O24  1  0.70559300  0.05835000  0.99531100  1.0
  O  O25  1  0.79440700  0.94165000  0.49531100  1.0
  O  O26  1  0.94165000  0.49531100  0.79440700  1.0
  O  O27  1  0.99531100  0.70559300  0.05835000  1.0
