# generated using pymatgen
data_RbHSeO4
_symmetry_space_group_name_H-M   'P 1'
_cell_length_a   4.59900000
_cell_length_b   7.51500000
_cell_length_c   12.88700000
_cell_angle_alpha   90.00000000
_cell_angle_beta   90.00000000
_cell_angle_gamma   90.00000000
_symmetry_Int_Tables_number   1
_chemical_formula_structural   RbHSeO4
_chemical_formula_sum   'Rb4 H4 Se4 O16'
_cell_volume   445.39385720
_cell_formula_units_Z   4
loop_
 _symmetry_equiv_pos_site_id
 _symmetry_equiv_pos_as_xyz
  1  'x, y, z'
loop_
 _atom_site_type_symbol
 _atom_site_label
 _atom_site_symmetry_multiplicity
 _atom_site_fract_x
 _atom_site_fract_y
 _atom_site_fract_z
 _atom_site_occupancy
  Rb  Rb0  1  0.81597000  0.44884000  0.87776000  1.0
  Rb  Rb1  1  0.18403000  0.94884000  0.62224000  1.0
  Rb  Rb2  1  0.68403000  0.55116000  0.37776000  1.0
  Rb  Rb3  1  0.31597000  0.05116000  0.12224000  1.0
  H  H4  1  0.27500000  0.82200000  0.89100000  1.0
  H  H5  1  0.72500000  0.32200000  0.60900000  1.0
  H  H6  1  0.22500000  0.17800000  0.39100000  1.0
  H  H7  1  0.77500000  0.67800000  0.10900000  1.0
  Se  Se8  1  0.73157000  0.95976000  0.87363000  1.0
  Se  Se9  1  0.26843000  0.45976000  0.62637000  1.0
  Se  Se10  1  0.76843000  0.04024000  0.37363000  1.0
  Se  Se11  1  0.23157000  0.54024000  0.12637000  1.0
  O  O12  1  0.58060000  0.06910000  0.78270000  1.0
  O  O13  1  0.41940000  0.56910000  0.71730000  1.0
  O  O14  1  0.91940000  0.93090000  0.28270000  1.0
  O  O15  1  0.08060000  0.43090000  0.21730000  1.0
  O  O16  1  0.84170000  0.07980000  0.96870000  1.0
  O  O17  1  0.15830000  0.57980000  0.53130000  1.0
  O  O18  1  0.65830000  0.92020000  0.46870000  1.0
  O  O19  1  0.34170000  0.42020000  0.03130000  1.0
  O  O20  1  0.98230000  0.82700000  0.83040000  1.0
  O  O21  1  0.01770000  0.32700000  0.66960000  1.0
  O  O22  1  0.51770000  0.17300000  0.33040000  1.0
  O  O23  1  0.48230000  0.67300000  0.16960000  1.0
  O  O24  1  0.47640000  0.81940000  0.92550000  1.0
  O  O25  1  0.52360000  0.31940000  0.57450000  1.0
  O  O26  1  0.02360000  0.18060000  0.42550000  1.0
  O  O27  1  0.97640000  0.68060000  0.07450000  1.0
