# generated using pymatgen
data_KBe3ZnF9
_symmetry_space_group_name_H-M   'P 1'
_cell_length_a   6.58300000
_cell_length_b   6.58300000
_cell_length_c   9.62300000
_cell_angle_alpha   90.00000000
_cell_angle_beta   90.00000000
_cell_angle_gamma   120.00000000
_symmetry_Int_Tables_number   1
_chemical_formula_structural   KBe3ZnF9
_chemical_formula_sum   'K2 Be6 Zn2 F18'
_cell_volume   361.15100495
_cell_formula_units_Z   2
loop_
 _symmetry_equiv_pos_site_id
 _symmetry_equiv_pos_as_xyz
  1  'x, y, z'
loop_
 _atom_site_type_symbol
 _atom_site_label
 _atom_site_symmetry_multiplicity
 _atom_site_fract_x
 _atom_site_fract_y
 _atom_site_fract_z
 _atom_site_occupancy
  K  K0  1  0.66666667  0.33333333  0.00000000  1.0
  K  K1  1  0.66666667  0.33333333  0.50000000  1.0
  Be  Be2  1  0.20600000  0.93300000  0.25000000  1.0
  Be  Be3  1  0.20600000  0.27299999  0.75000000  1.0
  Be  Be4  1  0.72700001  0.93300000  0.75000000  1.0
  Be  Be5  1  0.06700000  0.79400000  0.75000000  1.0
  Be  Be6  1  0.06700000  0.27299999  0.25000000  1.0
  Be  Be7  1  0.72700001  0.79400000  0.25000000  1.0
  Zn  Zn8  1  0.33333333  0.66666667  0.00000000  1.0
  Zn  Zn9  1  0.33333333  0.66666667  0.50000000  1.0
  F  F10  1  0.07700000  0.66000000  0.61900000  1.0
  F  F11  1  0.58300001  0.92300000  0.61900000  1.0
  F  F12  1  0.34000000  0.41699999  0.61900000  1.0
  F  F13  1  0.34000000  0.92300000  0.38100000  1.0
  F  F14  1  0.23400000  0.19600000  0.25000000  1.0
  F  F15  1  0.96200001  0.76600000  0.25000000  1.0
  F  F16  1  0.80400000  0.03799999  0.25000000  1.0
  F  F17  1  0.80400000  0.76600000  0.75000000  1.0
  F  F18  1  0.96200001  0.19600000  0.75000000  1.0
  F  F19  1  0.23400000  0.03799999  0.75000000  1.0
  F  F20  1  0.34000000  0.92300000  0.11900000  1.0
  F  F21  1  0.58300001  0.66000000  0.38100000  1.0
  F  F22  1  0.07700000  0.41699999  0.38100000  1.0
  F  F23  1  0.07700000  0.41699999  0.11900000  1.0
  F  F24  1  0.58300001  0.66000000  0.11900000  1.0
  F  F25  1  0.07700000  0.66000000  0.88100000  1.0
  F  F26  1  0.58300001  0.92300000  0.88100000  1.0
  F  F27  1  0.34000000  0.41699999  0.88100000  1.0
