# generated using pymatgen
data_RbBe3ZnF9
_symmetry_space_group_name_H-M   'P 1'
_cell_length_a   6.68600000
_cell_length_b   6.68600000
_cell_length_c   9.65800000
_cell_angle_alpha   90.00000000
_cell_angle_beta   90.00000000
_cell_angle_gamma   120.00000000
_symmetry_Int_Tables_number   1
_chemical_formula_structural   RbBe3ZnF9
_chemical_formula_sum   'Rb2 Be6 Zn2 F18'
_cell_volume   373.89579187
_cell_formula_units_Z   2
loop_
 _symmetry_equiv_pos_site_id
 _symmetry_equiv_pos_as_xyz
  1  'x, y, z'
loop_
 _atom_site_type_symbol
 _atom_site_label
 _atom_site_symmetry_multiplicity
 _atom_site_fract_x
 _atom_site_fract_y
 _atom_site_fract_z
 _atom_site_occupancy
  Rb  Rb0  1  0.33333333  0.66666667  0.50000000  1.0
  Rb  Rb1  1  0.33333333  0.66666667  0.00000000  1.0
  Be  Be2  1  0.86666667  0.28333333  0.25000000  1.0
  Be  Be3  1  0.86666667  0.58333334  0.75000000  1.0
  Be  Be4  1  0.41666666  0.28333333  0.75000000  1.0
  Be  Be5  1  0.71666667  0.13333333  0.75000000  1.0
  Be  Be6  1  0.71666667  0.58333334  0.25000000  1.0
  Be  Be7  1  0.41666666  0.13333333  0.25000000  1.0
  Zn  Zn8  1  0.00000000  0.00000000  0.50000000  1.0
  Zn  Zn9  1  0.00000000  0.00000000  0.00000000  1.0
  F  F10  1  0.67566667  0.01433333  0.62200000  1.0
  F  F11  1  0.33866666  0.32433333  0.62200000  1.0
  F  F12  1  0.98566667  0.66133334  0.62200000  1.0
  F  F13  1  0.98566667  0.32433333  0.37800000  1.0
  F  F14  1  0.89766667  0.51133333  0.25000000  1.0
  F  F15  1  0.61366666  0.10233333  0.25000000  1.0
  F  F16  1  0.48866667  0.38633334  0.25000000  1.0
  F  F17  1  0.48866667  0.10233333  0.75000000  1.0
  F  F18  1  0.61366666  0.51133333  0.75000000  1.0
  F  F19  1  0.89766667  0.38633334  0.75000000  1.0
  F  F20  1  0.98566667  0.32433333  0.12200000  1.0
  F  F21  1  0.33866666  0.01433333  0.37800000  1.0
  F  F22  1  0.67566667  0.66133334  0.37800000  1.0
  F  F23  1  0.67566667  0.66133334  0.12200000  1.0
  F  F24  1  0.33866666  0.01433333  0.12200000  1.0
  F  F25  1  0.67566667  0.01433333  0.87800000  1.0
  F  F26  1  0.33866666  0.32433333  0.87800000  1.0
  F  F27  1  0.98566667  0.66133334  0.87800000  1.0
