# generated using pymatgen
data_LiGaO2
_symmetry_space_group_name_H-M   'P 1'
_cell_length_a   5.39500000
_cell_length_b   6.36700000
_cell_length_c   5.00500000
_cell_angle_alpha   90.00000000
_cell_angle_beta   90.00000000
_cell_angle_gamma   90.00000000
_symmetry_Int_Tables_number   1
_chemical_formula_structural   LiGaO2
_chemical_formula_sum   'Li4 Ga4 O8'
_cell_volume   171.92157482
_cell_formula_units_Z   4
loop_
 _symmetry_equiv_pos_site_id
 _symmetry_equiv_pos_as_xyz
  1  'x, y, z'
loop_
 _atom_site_type_symbol
 _atom_site_label
 _atom_site_symmetry_multiplicity
 _atom_site_fract_x
 _atom_site_fract_y
 _atom_site_fract_z
 _atom_site_occupancy
  Li  Li0  1  0.58200000  0.87200000  0.01000000  1.0
  Li  Li1  1  0.91800000  0.37200000  0.51000000  1.0
  Li  Li2  1  0.08200000  0.62800000  0.01000000  1.0
  Li  Li3  1  0.41800000  0.12800000  0.51000000  1.0
  Ga  Ga4  1  0.58226000  0.37373000  0.00000000  1.0
  Ga  Ga5  1  0.41774000  0.62627000  0.50000000  1.0
  Ga  Ga6  1  0.91774000  0.87373000  0.50000000  1.0
  Ga  Ga7  1  0.08226000  0.12627000  0.00000000  1.0
  O  O8  1  0.06820000  0.11170000  0.36950000  1.0
  O  O9  1  0.56820000  0.38830000  0.36950000  1.0
  O  O10  1  0.93180000  0.88830000  0.86950000  1.0
  O  O11  1  0.43180000  0.61170000  0.86950000  1.0
  O  O12  1  0.40690000  0.13760000  0.89370000  1.0
  O  O13  1  0.59310000  0.86240000  0.39370000  1.0
  O  O14  1  0.09310000  0.63760000  0.39370000  1.0
  O  O15  1  0.90690000  0.36240000  0.89370000  1.0
