# generated using pymatgen
data_Na2SiF6
_symmetry_space_group_name_H-M   'P 1'
_cell_length_a   8.85900000
_cell_length_b   8.85900000
_cell_length_c   5.03800000
_cell_angle_alpha   90.00000000
_cell_angle_beta   90.00000000
_cell_angle_gamma   120.00000000
_symmetry_Int_Tables_number   1
_chemical_formula_structural   Na2SiF6
_chemical_formula_sum   'Na6 Si3 F18'
_cell_volume   342.41927092
_cell_formula_units_Z   3
loop_
 _symmetry_equiv_pos_site_id
 _symmetry_equiv_pos_as_xyz
  1  'x, y, z'
loop_
 _atom_site_type_symbol
 _atom_site_label
 _atom_site_symmetry_multiplicity
 _atom_site_fract_x
 _atom_site_fract_y
 _atom_site_fract_z
 _atom_site_occupancy
  Na  Na0  1  0.00000000  0.28600001  0.50000000  1.0
  Na  Na1  1  0.28600001  0.00000000  0.50000000  1.0
  Na  Na2  1  0.71399999  0.71399999  0.50000000  1.0
  Na  Na3  1  0.00000000  0.62100000  0.00000000  1.0
  Na  Na4  1  0.62100000  0.00000000  0.00000000  1.0
  Na  Na5  1  0.37900000  0.37900000  0.00000000  1.0
  Si  Si6  1  0.66666667  0.33333333  0.49400000  1.0
  Si  Si7  1  0.33333333  0.66666667  0.50600000  1.0
  Si  Si8  1  0.00000000  0.00000000  0.00000000  1.0
  F  F9  1  0.74000001  0.23000001  0.69000000  1.0
  F  F10  1  0.76999999  0.51000000  0.69000000  1.0
  F  F11  1  0.49000000  0.25999999  0.69000000  1.0
  F  F12  1  0.51000000  0.76999999  0.31000000  1.0
  F  F13  1  0.25999999  0.49000000  0.31000000  1.0
  F  F14  1  0.23000001  0.74000001  0.31000000  1.0
  F  F15  1  0.59900001  0.44400001  0.29900000  1.0
  F  F16  1  0.55599999  0.15500000  0.29900000  1.0
  F  F17  1  0.84500000  0.40099999  0.29900000  1.0
  F  F18  1  0.08700001  0.90800001  0.81000000  1.0
  F  F19  1  0.09199999  0.17900000  0.81000000  1.0
  F  F20  1  0.82100000  0.91299999  0.81000000  1.0
  F  F21  1  0.17900000  0.09199999  0.19000000  1.0
  F  F22  1  0.91299999  0.82100000  0.19000000  1.0
  F  F23  1  0.90800001  0.08700001  0.19000000  1.0
  F  F24  1  0.44400001  0.59900001  0.70100000  1.0
  F  F25  1  0.40099999  0.84500000  0.70100000  1.0
  F  F26  1  0.15500000  0.55599999  0.70100000  1.0
