# generated using pymatgen
data_K6MgO4
_symmetry_space_group_name_H-M   'P 1'
_cell_length_a   8.47800000
_cell_length_b   8.47800000
_cell_length_c   6.58500000
_cell_angle_alpha   90.00000000
_cell_angle_beta   90.00000000
_cell_angle_gamma   120.00000000
_symmetry_Int_Tables_number   1
_chemical_formula_structural   K6MgO4
_chemical_formula_sum   'K12 Mg2 O8'
_cell_volume   409.89558020
_cell_formula_units_Z   2
loop_
 _symmetry_equiv_pos_site_id
 _symmetry_equiv_pos_as_xyz
  1  'x, y, z'
loop_
 _atom_site_type_symbol
 _atom_site_label
 _atom_site_symmetry_multiplicity
 _atom_site_fract_x
 _atom_site_fract_y
 _atom_site_fract_z
 _atom_site_occupancy
  K  K0  1  0.07039999  0.53520000  0.32160000  1.0
  K  K1  1  0.53520000  0.46480000  0.82160000  1.0
  K  K2  1  0.46480000  0.92960001  0.32160000  1.0
  K  K3  1  0.53520000  0.07039999  0.82160000  1.0
  K  K4  1  0.92960001  0.46480000  0.82160000  1.0
  K  K5  1  0.46480000  0.53520000  0.32160000  1.0
  K  K6  1  0.85610000  0.14390000  0.50000000  1.0
  K  K7  1  0.71220000  0.85610000  0.00000000  1.0
  K  K8  1  0.14390000  0.28780000  0.00000000  1.0
  K  K9  1  0.85610000  0.71220000  0.50000000  1.0
  K  K10  1  0.28780000  0.14390000  0.50000000  1.0
  K  K11  1  0.14390000  0.85610000  0.00000000  1.0
  Mg  Mg12  1  0.33333333  0.66666667  0.71540000  1.0
  Mg  Mg13  1  0.66666667  0.33333333  0.21540000  1.0
  O  O14  1  0.33333333  0.66666667  0.01820000  1.0
  O  O15  1  0.66666667  0.33333333  0.51820000  1.0
  O  O16  1  0.79780000  0.20220000  0.11580000  1.0
  O  O17  1  0.59560000  0.79780000  0.61580000  1.0
  O  O18  1  0.20220000  0.40440000  0.61580000  1.0
  O  O19  1  0.79780000  0.59560000  0.11580000  1.0
  O  O20  1  0.40440000  0.20220000  0.11580000  1.0
  O  O21  1  0.20220000  0.79780000  0.61580000  1.0
