# generated using pymatgen
data_KNaGeO3
_symmetry_space_group_name_H-M   'P 1'
_cell_length_a   6.89500000
_cell_length_b   10.67500000
_cell_length_c   4.80300000
_cell_angle_alpha   90.00000000
_cell_angle_beta   90.00000000
_cell_angle_gamma   90.00000000
_symmetry_Int_Tables_number   1
_chemical_formula_structural   KNaGeO3
_chemical_formula_sum   'K4 Na4 Ge4 O12'
_cell_volume   353.52061237
_cell_formula_units_Z   4
loop_
 _symmetry_equiv_pos_site_id
 _symmetry_equiv_pos_as_xyz
  1  'x, y, z'
loop_
 _atom_site_type_symbol
 _atom_site_label
 _atom_site_symmetry_multiplicity
 _atom_site_fract_x
 _atom_site_fract_y
 _atom_site_fract_z
 _atom_site_occupancy
  K  K0  1  0.88550000  0.73360000  0.52270000  1.0
  K  K1  1  0.38550000  0.76640000  0.52270000  1.0
  K  K2  1  0.61450000  0.23360000  0.02270000  1.0
  K  K3  1  0.11450000  0.26640000  0.02270000  1.0
  Na  Na4  1  0.87870000  0.41400000  0.53700000  1.0
  Na  Na5  1  0.62130000  0.91400000  0.03700000  1.0
  Na  Na6  1  0.37870000  0.08600000  0.53700000  1.0
  Na  Na7  1  0.12130000  0.58600000  0.03700000  1.0
  Ge  Ge8  1  0.37050000  0.45130000  0.50000000  1.0
  Ge  Ge9  1  0.62950000  0.54870000  0.00000000  1.0
  Ge  Ge10  1  0.12950000  0.95130000  0.00000000  1.0
  Ge  Ge11  1  0.87050000  0.04870000  0.50000000  1.0
  O  O12  1  0.91950000  0.02990000  0.13100000  1.0
  O  O13  1  0.16480000  0.53960000  0.55800000  1.0
  O  O14  1  0.86310000  0.20360000  0.56600000  1.0
  O  O15  1  0.58050000  0.52990000  0.63100000  1.0
  O  O16  1  0.41950000  0.47010000  0.13100000  1.0
  O  O17  1  0.63690000  0.70360000  0.06600000  1.0
  O  O18  1  0.08050000  0.97010000  0.63100000  1.0
  O  O19  1  0.33520000  0.03960000  0.05800000  1.0
  O  O20  1  0.66480000  0.96040000  0.55800000  1.0
  O  O21  1  0.36310000  0.29640000  0.56600000  1.0
  O  O22  1  0.83520000  0.46040000  0.05800000  1.0
  O  O23  1  0.13690000  0.79640000  0.06600000  1.0
