# generated using pymatgen
data_P2S2O3
_symmetry_space_group_name_H-M   'P 1'
_cell_length_a   9.09900000
_cell_length_b   9.38321909
_cell_length_c   9.09900000
_cell_angle_alpha   119.00296800
_cell_angle_beta   90.00000000
_cell_angle_gamma   119.00296800
_symmetry_Int_Tables_number   1
_chemical_formula_structural   P2S2O3
_chemical_formula_sum   'P8 S8 O12'
_cell_volume   565.46800095
_cell_formula_units_Z   4
loop_
 _symmetry_equiv_pos_site_id
 _symmetry_equiv_pos_as_xyz
  1  'x, y, z'
loop_
 _atom_site_type_symbol
 _atom_site_label
 _atom_site_symmetry_multiplicity
 _atom_site_fract_x
 _atom_site_fract_y
 _atom_site_fract_z
 _atom_site_occupancy
  P  P12  1  0.71940000  0.35206000  0.32719000  1.0
  P  P13  1  0.63266000  0.35206000  0.02487000  1.0
  P  P14  1  0.13266000  0.35206000  0.82719000  1.0
  P  P15  1  0.67281000  0.64794000  0.36734000  1.0
  P  P16  1  0.97513000  0.64794000  0.28060000  1.0
  P  P17  1  0.47513000  0.64794000  0.86734000  1.0
  P  P18  1  0.17281000  0.64794000  0.78060000  1.0
  P  P19  1  0.21940000  0.35206000  0.52487000  1.0
  S  S20  1  0.68669000  0.19478000  0.40975000  1.0
  S  S21  1  0.18669000  0.19478000  0.28503000  1.0
  S  S22  1  0.59025000  0.80522000  0.49191000  1.0
  S  S23  1  0.21497000  0.80522000  0.31331000  1.0
  S  S24  1  0.71497000  0.80522000  0.99191000  1.0
  S  S25  1  0.09025000  0.80522000  0.81331000  1.0
  S  S26  1  0.00809000  0.19478000  0.90975000  1.0
  S  S27  1  0.50809000  0.19478000  0.78503000  1.0
  O  O0  1  0.61970000  0.23940000  0.11970000  1.0
  O  O1  1  0.41910000  0.49820000  0.65640000  1.0
  O  O2  1  0.07910000  0.49820000  0.84180000  1.0
  O  O3  1  0.34360000  0.50180000  0.92090000  1.0
  O  O4  1  0.57910000  0.49820000  0.15640000  1.0
  O  O5  1  0.91910000  0.49820000  0.34180000  1.0
  O  O6  1  0.15820000  0.50180000  0.58090000  1.0
  O  O7  1  0.84360000  0.50180000  0.08090000  1.0
  O  O8  1  0.88030000  0.76060000  0.38030000  1.0
  O  O9  1  0.38030000  0.76060000  0.88030000  1.0
  O  O10  1  0.11970000  0.23940000  0.61970000  1.0
  O  O11  1  0.65820000  0.50180000  0.42090000  1.0
