# generated using pymatgen
data_K3BiO3
_symmetry_space_group_name_H-M   'P 1'
_cell_length_a   9.26777086
_cell_length_b   9.26777086
_cell_length_c   9.26777086
_cell_angle_alpha   109.47122063
_cell_angle_beta   109.47122063
_cell_angle_gamma   109.47122063
_symmetry_Int_Tables_number   1
_chemical_formula_structural   K3BiO3
_chemical_formula_sum   'K12 Bi4 O12'
_cell_volume   612.77913899
_cell_formula_units_Z   4
loop_
 _symmetry_equiv_pos_site_id
 _symmetry_equiv_pos_as_xyz
  1  'x, y, z'
loop_
 _atom_site_type_symbol
 _atom_site_label
 _atom_site_symmetry_multiplicity
 _atom_site_fract_x
 _atom_site_fract_y
 _atom_site_fract_z
 _atom_site_occupancy
  K  K4  1  0.73001000  0.73001000  0.24322000  1.0
  K  K5  1  0.51321000  0.26999000  0.00000000  1.0
  K  K6  1  0.51321000  0.00000000  0.26999000  1.0
  K  K7  1  0.75678000  0.48679000  0.48679000  1.0
  K  K8  1  0.26999000  0.00000000  0.51321000  1.0
  K  K9  1  0.26999000  0.51321000  0.00000000  1.0
  K  K10  1  0.48679000  0.48679000  0.75678000  1.0
  K  K11  1  0.00000000  0.26999000  0.51321000  1.0
  K  K12  1  0.00000000  0.51321000  0.26999000  1.0
  K  K13  1  0.24322000  0.73001000  0.73001000  1.0
  K  K14  1  0.73001000  0.24322000  0.73001000  1.0
  K  K15  1  0.48679000  0.75678000  0.48679000  1.0
  Bi  Bi0  1  0.29450000  0.29450000  0.29450000  1.0
  Bi  Bi1  1  0.00000000  0.00000000  0.70550000  1.0
  Bi  Bi2  1  0.00000000  0.70550000  0.00000000  1.0
  Bi  Bi3  1  0.70550000  0.00000000  0.00000000  1.0
  O  O16  1  0.26360000  0.47060000  0.47060000  1.0
  O  O17  1  0.52940000  0.00000000  0.79300000  1.0
  O  O18  1  0.52940000  0.79300000  0.00000000  1.0
  O  O19  1  0.20700000  0.20700000  0.73640000  1.0
  O  O20  1  0.79300000  0.00000000  0.52940000  1.0
  O  O21  1  0.79300000  0.52940000  0.00000000  1.0
  O  O22  1  0.47060000  0.47060000  0.26360000  1.0
  O  O23  1  0.00000000  0.79300000  0.52940000  1.0
  O  O24  1  0.00000000  0.52940000  0.79300000  1.0
  O  O25  1  0.73640000  0.20700000  0.20700000  1.0
  O  O26  1  0.20700000  0.73640000  0.20700000  1.0
  O  O27  1  0.47060000  0.26360000  0.47060000  1.0
