# generated using pymatgen
data_In2TeO6
_symmetry_space_group_name_H-M   'P 1'
_cell_length_a   8.88300015
_cell_length_b   8.88300015
_cell_length_c   4.82300000
_cell_angle_alpha   90.00000000
_cell_angle_beta   90.00000000
_cell_angle_gamma   120.00000000
_symmetry_Int_Tables_number   1
_chemical_formula_structural   In2TeO6
_chemical_formula_sum   'In6 Te3 O18'
_cell_volume   329.58484408
_cell_formula_units_Z   3
loop_
 _symmetry_equiv_pos_site_id
 _symmetry_equiv_pos_as_xyz
  1  'x, y, z'
loop_
 _atom_site_type_symbol
 _atom_site_label
 _atom_site_symmetry_multiplicity
 _atom_site_fract_x
 _atom_site_fract_y
 _atom_site_fract_z
 _atom_site_occupancy
  In  In0  1  0.62940000  0.00000000  0.00000000  1.0
  In  In1  1  0.00000000  0.62940000  0.00000000  1.0
  In  In2  1  0.37060000  0.37060000  0.00000000  1.0
  In  In3  1  0.29320000  0.00000000  0.50000000  1.0
  In  In4  1  0.00000000  0.29320000  0.50000000  1.0
  In  In5  1  0.70680000  0.70680000  0.50000000  1.0
  Te  Te6  1  0.00000000  0.00000000  0.00000000  1.0
  Te  Te7  1  0.33333333  0.66666667  0.49970000  1.0
  Te  Te8  1  0.66666667  0.33333333  0.50030000  1.0
  O  O9  1  0.08870000  0.88150000  0.78410000  1.0
  O  O10  1  0.11850000  0.20720000  0.78410000  1.0
  O  O11  1  0.79280000  0.91130000  0.78410000  1.0
  O  O12  1  0.20720000  0.11850000  0.21590000  1.0
  O  O13  1  0.91130000  0.79280000  0.21590000  1.0
  O  O14  1  0.88150000  0.08870000  0.21590000  1.0
  O  O15  1  0.46040000  0.58730000  0.76360000  1.0
  O  O16  1  0.41270000  0.87310000  0.76360000  1.0
  O  O17  1  0.12690000  0.53960000  0.76360000  1.0
  O  O18  1  0.87310000  0.41270000  0.23640000  1.0
  O  O19  1  0.53960000  0.12690000  0.23640000  1.0
  O  O20  1  0.58730000  0.46040000  0.23640000  1.0
  O  O21  1  0.22320000  0.76060000  0.27980000  1.0
  O  O22  1  0.23940000  0.46260000  0.27980000  1.0
  O  O23  1  0.53740000  0.77680000  0.27980000  1.0
  O  O24  1  0.46260000  0.23940000  0.72020000  1.0
  O  O25  1  0.77680000  0.53740000  0.72020000  1.0
  O  O26  1  0.76060000  0.22320000  0.72020000  1.0
