# generated using pymatgen
data_SbO2
_symmetry_space_group_name_H-M   'P 1'
_cell_length_a   5.45240000
_cell_length_b   4.81800000
_cell_length_c   11.80830000
_cell_angle_alpha   90.00000000
_cell_angle_beta   90.00000000
_cell_angle_gamma   90.00000000
_symmetry_Int_Tables_number   1
_chemical_formula_structural   SbO2
_chemical_formula_sum   'Sb8 O16'
_cell_volume   310.20006396
_cell_formula_units_Z   8
loop_
 _symmetry_equiv_pos_site_id
 _symmetry_equiv_pos_as_xyz
  1  'x, y, z'
loop_
 _atom_site_type_symbol
 _atom_site_label
 _atom_site_symmetry_multiplicity
 _atom_site_fract_x
 _atom_site_fract_y
 _atom_site_fract_z
 _atom_site_occupancy
  Sb  Sb0  1  0.48030000  0.46480000  0.50100000  1.0
  Sb  Sb1  1  0.51970000  0.53520000  0.00100000  1.0
  Sb  Sb2  1  0.98030000  0.03520000  0.50100000  1.0
  Sb  Sb3  1  0.01970000  0.96480000  0.00100000  1.0
  Sb  Sb4  1  0.87408000  0.50280000  0.74550000  1.0
  Sb  Sb5  1  0.12592000  0.49720000  0.24550000  1.0
  Sb  Sb6  1  0.37408000  0.99720000  0.74550000  1.0
  Sb  Sb7  1  0.62592000  0.00280000  0.24550000  1.0
  O  O8  1  0.84100000  0.69400000  0.90060000  1.0
  O  O9  1  0.15900000  0.30600000  0.40060000  1.0
  O  O10  1  0.34100000  0.80600000  0.90060000  1.0
  O  O11  1  0.65900000  0.19400000  0.40060000  1.0
  O  O12  1  0.57080000  0.28710000  0.81330000  1.0
  O  O13  1  0.42920000  0.71290000  0.31330000  1.0
  O  O14  1  0.07080000  0.21290000  0.81330000  1.0
  O  O15  1  0.92920000  0.78710000  0.31330000  1.0
  O  O16  1  0.66200000  0.86000000  0.08790000  1.0
  O  O17  1  0.33800000  0.14000000  0.58790000  1.0
  O  O18  1  0.16200000  0.64000000  0.08790000  1.0
  O  O19  1  0.83800000  0.36000000  0.58790000  1.0
  O  O20  1  0.84080000  0.30810000  0.18830000  1.0
  O  O21  1  0.15920000  0.69190000  0.68830000  1.0
  O  O22  1  0.34080000  0.19190000  0.18830000  1.0
  O  O23  1  0.65920000  0.80810000  0.68830000  1.0
