# generated using pymatgen
data_SCl2
_symmetry_space_group_name_H-M   'P 1'
_cell_length_a   4.00190000
_cell_length_b   9.18800000
_cell_length_c   17.50500000
_cell_angle_alpha   90.00000000
_cell_angle_beta   90.00000000
_cell_angle_gamma   90.00000000
_symmetry_Int_Tables_number   1
_chemical_formula_structural   SCl2
_chemical_formula_sum   'S8 Cl16'
_cell_volume   643.64934829
_cell_formula_units_Z   8
loop_
 _symmetry_equiv_pos_site_id
 _symmetry_equiv_pos_as_xyz
  1  'x, y, z'
loop_
 _atom_site_type_symbol
 _atom_site_label
 _atom_site_symmetry_multiplicity
 _atom_site_fract_x
 _atom_site_fract_y
 _atom_site_fract_z
 _atom_site_occupancy
  S  S0  1  0.21420000  0.29274000  0.31636000  1.0
  S  S1  1  0.71420000  0.20726000  0.68364000  1.0
  S  S2  1  0.78580000  0.79274000  0.18364000  1.0
  S  S3  1  0.28580000  0.70726000  0.81636000  1.0
  S  S4  1  0.62650000  0.28366000  0.14277000  1.0
  S  S5  1  0.12650000  0.21634000  0.85723000  1.0
  S  S6  1  0.37350000  0.78366000  0.35723000  1.0
  S  S7  1  0.87350000  0.71634000  0.64277000  1.0
  Cl  Cl8  1  0.01910000  0.29440000  0.42268000  1.0
  Cl  Cl9  1  0.51910000  0.20560000  0.57732000  1.0
  Cl  Cl10  1  0.98090000  0.79440000  0.07732000  1.0
  Cl  Cl11  1  0.48090000  0.70560000  0.92268000  1.0
  Cl  Cl12  1  0.05040000  0.48276000  0.27277000  1.0
  Cl  Cl13  1  0.55040000  0.01724000  0.72723000  1.0
  Cl  Cl14  1  0.94960000  0.98276000  0.22723000  1.0
  Cl  Cl15  1  0.44960000  0.51724000  0.77277000  1.0
  Cl  Cl16  1  0.47300000  0.47267000  0.09584000  1.0
  Cl  Cl17  1  0.97300000  0.02733000  0.90416000  1.0
  Cl  Cl18  1  0.52700000  0.97267000  0.40416000  1.0
  Cl  Cl19  1  0.02700000  0.52733000  0.59584000  1.0
  Cl  Cl20  1  0.43970000  0.13556000  0.07021000  1.0
  Cl  Cl21  1  0.93970000  0.36444000  0.92979000  1.0
  Cl  Cl22  1  0.56030000  0.63556000  0.42979000  1.0
  Cl  Cl23  1  0.06030000  0.86444000  0.57021000  1.0
