# generated using pymatgen
data_NaBe4SbO7
_symmetry_space_group_name_H-M   'P 1'
_cell_length_a   5.47000000
_cell_length_b   5.47000000
_cell_length_c   8.92000000
_cell_angle_alpha   90.00000000
_cell_angle_beta   90.00000000
_cell_angle_gamma   120.00000000
_symmetry_Int_Tables_number   1
_chemical_formula_structural   NaBe4SbO7
_chemical_formula_sum   'Na2 Be8 Sb2 O14'
_cell_volume   231.13735478
_cell_formula_units_Z   2
loop_
 _symmetry_equiv_pos_site_id
 _symmetry_equiv_pos_as_xyz
  1  'x, y, z'
loop_
 _atom_site_type_symbol
 _atom_site_label
 _atom_site_symmetry_multiplicity
 _atom_site_fract_x
 _atom_site_fract_y
 _atom_site_fract_z
 _atom_site_occupancy
  Na  Na0  1  0.66666667  0.33333333  0.12500000  1.0
  Na  Na1  1  0.33333333  0.66666667  0.62500000  1.0
  Be  Be2  1  0.83300000  0.16700000  0.81300000  1.0
  Be  Be3  1  0.66600000  0.83300000  0.31300000  1.0
  Be  Be4  1  0.16700000  0.33400000  0.31300000  1.0
  Be  Be5  1  0.16700000  0.83300000  0.31300000  1.0
  Be  Be6  1  0.00000000  0.00000000  0.06300000  1.0
  Be  Be7  1  0.00000000  0.00000000  0.56300000  1.0
  Be  Be8  1  0.33400000  0.16700000  0.81300000  1.0
  Be  Be9  1  0.83300000  0.66600000  0.81300000  1.0
  Sb  Sb10  1  0.66666667  0.33333333  0.50000000  1.0
  Sb  Sb11  1  0.33333333  0.66666667  0.00000000  1.0
  O  O12  1  0.83300001  0.66600001  0.62500000  1.0
  O  O13  1  0.00000000  0.00000000  0.37500000  1.0
  O  O14  1  0.00000000  0.00000000  0.87500000  1.0
  O  O15  1  0.16699999  0.33399999  0.12500000  1.0
  O  O16  1  0.66600001  0.83300001  0.12500000  1.0
  O  O17  1  0.83300001  0.16699999  0.62500000  1.0
  O  O18  1  0.50000000  0.50000000  0.37500000  1.0
  O  O19  1  0.00000000  0.50000000  0.87500000  1.0
  O  O20  1  0.50000000  0.00000000  0.87500000  1.0
  O  O21  1  0.50000000  0.00000000  0.37500000  1.0
  O  O22  1  0.00000000  0.50000000  0.37500000  1.0
  O  O23  1  0.50000000  0.50000000  0.87500000  1.0
  O  O24  1  0.16699999  0.83300001  0.12500000  1.0
  O  O25  1  0.33399999  0.16699999  0.62500000  1.0
