# generated using pymatgen
data_BH6N
_symmetry_space_group_name_H-M   'P 1'
_cell_length_a   4.94500000
_cell_length_b   4.94500000
_cell_length_c   4.94500000
_cell_angle_alpha   90.00000000
_cell_angle_beta   90.00000000
_cell_angle_gamma   90.00000000
_symmetry_Int_Tables_number   1
_chemical_formula_structural   BH6N
_chemical_formula_sum   'B2 H12 N2'
_cell_volume   120.92020863
_cell_formula_units_Z   2
loop_
 _symmetry_equiv_pos_site_id
 _symmetry_equiv_pos_as_xyz
  1  'x, y, z'
loop_
 _atom_site_type_symbol
 _atom_site_label
 _atom_site_symmetry_multiplicity
 _atom_site_fract_x
 _atom_site_fract_y
 _atom_site_fract_z
 _atom_site_occupancy
  B  B0  1  0.50000000  0.77100000  0.81140000  1.0
  B  B1  1  0.00000000  0.22900000  0.31140000  1.0
  H  H2  1  0.50000000  0.56940000  0.86000000  1.0
  H  H3  1  0.50000000  0.96680000  0.44840000  1.0
  H  H4  1  0.00000000  0.03320000  0.94840000  1.0
  H  H5  1  0.15690000  0.13330000  0.37140000  1.0
  H  H6  1  0.84310000  0.13330000  0.37140000  1.0
  H  H7  1  0.14410000  0.30650000  0.93610000  1.0
  H  H8  1  0.85590000  0.30650000  0.93610000  1.0
  H  H9  1  0.00000000  0.43060000  0.36000000  1.0
  H  H10  1  0.35590000  0.69350000  0.43610000  1.0
  H  H11  1  0.64410000  0.69350000  0.43610000  1.0
  H  H12  1  0.34310000  0.86670000  0.87140000  1.0
  H  H13  1  0.65690000  0.86670000  0.87140000  1.0
  N  N14  1  0.50000000  0.78012000  0.50000000  1.0
  N  N15  1  0.00000000  0.21988000  0.00000000  1.0
