# generated using pymatgen
data_Pb2CO4
_symmetry_space_group_name_H-M   'P 1'
_cell_length_a   5.14650000
_cell_length_b   9.01400000
_cell_length_c   9.31500000
_cell_angle_alpha   90.00000000
_cell_angle_beta   90.00000000
_cell_angle_gamma   90.00000000
_symmetry_Int_Tables_number   1
_chemical_formula_structural   Pb2CO4
_chemical_formula_sum   'Pb8 C4 O16'
_cell_volume   432.12798256
_cell_formula_units_Z   4
loop_
 _symmetry_equiv_pos_site_id
 _symmetry_equiv_pos_as_xyz
  1  'x, y, z'
loop_
 _atom_site_type_symbol
 _atom_site_label
 _atom_site_symmetry_multiplicity
 _atom_site_fract_x
 _atom_site_fract_y
 _atom_site_fract_z
 _atom_site_occupancy
  Pb  Pb0  1  0.01010000  0.55560000  0.58425000  1.0
  Pb  Pb1  1  0.51010000  0.94440000  0.41575000  1.0
  Pb  Pb2  1  0.98990000  0.05560000  0.91575000  1.0
  Pb  Pb3  1  0.48990000  0.44440000  0.08425000  1.0
  Pb  Pb4  1  0.96730000  0.24390000  0.34664000  1.0
  Pb  Pb5  1  0.46730000  0.25610000  0.65336000  1.0
  Pb  Pb6  1  0.03270000  0.74390000  0.15336000  1.0
  Pb  Pb7  1  0.53270000  0.75610000  0.84664000  1.0
  C  C8  1  0.99100000  0.49200000  0.89800000  1.0
  C  C9  1  0.49100000  0.00800000  0.10200000  1.0
  C  C10  1  0.00900000  0.99200000  0.60200000  1.0
  C  C11  1  0.50900000  0.50800000  0.39800000  1.0
  O  O12  1  0.21400000  0.48500000  0.83800000  1.0
  O  O13  1  0.71400000  0.01500000  0.16200000  1.0
  O  O14  1  0.78600000  0.98500000  0.66200000  1.0
  O  O15  1  0.28600000  0.51500000  0.33800000  1.0
  O  O16  1  0.72200000  0.50200000  0.33600000  1.0
  O  O17  1  0.22200000  0.99800000  0.66400000  1.0
  O  O18  1  0.27800000  0.00200000  0.16400000  1.0
  O  O19  1  0.77800000  0.49800000  0.83600000  1.0
  O  O20  1  0.01600000  0.98000000  0.45500000  1.0
  O  O21  1  0.51600000  0.52000000  0.54500000  1.0
  O  O22  1  0.98400000  0.48000000  0.04500000  1.0
  O  O23  1  0.48400000  0.02000000  0.95500000  1.0
  O  O24  1  0.04300000  0.32100000  0.57200000  1.0
  O  O25  1  0.54300000  0.17900000  0.42800000  1.0
  O  O26  1  0.95700000  0.82100000  0.92800000  1.0
  O  O27  1  0.45700000  0.67900000  0.07200000  1.0
