# generated using pymatgen
data_NaI3O8
_symmetry_space_group_name_H-M   'P 1'
_cell_length_a   8.08200000
_cell_length_b   8.08200000
_cell_length_c   5.74100000
_cell_angle_alpha   90.00000000
_cell_angle_beta   90.00000000
_cell_angle_gamma   90.00000000
_symmetry_Int_Tables_number   1
_chemical_formula_structural   NaI3O8
_chemical_formula_sum   'Na2 I6 O16'
_cell_volume   374.99479448
_cell_formula_units_Z   2
loop_
 _symmetry_equiv_pos_site_id
 _symmetry_equiv_pos_as_xyz
  1  'x, y, z'
loop_
 _atom_site_type_symbol
 _atom_site_label
 _atom_site_symmetry_multiplicity
 _atom_site_fract_x
 _atom_site_fract_y
 _atom_site_fract_z
 _atom_site_occupancy
  Na  Na0  1  0.50000000  0.50000000  0.50000000  1.0
  Na  Na1  1  0.00000000  0.00000000  0.50000000  1.0
  I  I2  1  0.00000000  0.50000000  0.60130000  1.0
  I  I3  1  0.74949000  0.73179000  0.11437000  1.0
  I  I4  1  0.50000000  0.00000000  0.39870000  1.0
  I  I5  1  0.73179000  0.25051000  0.88563000  1.0
  I  I6  1  0.25051000  0.26821000  0.11437000  1.0
  I  I7  1  0.26821000  0.74949000  0.88563000  1.0
  O  O8  1  0.27040000  0.48540000  0.15730000  1.0
  O  O9  1  0.06680000  0.23050000  0.27850000  1.0
  O  O10  1  0.94330000  0.66850000  0.79190000  1.0
  O  O11  1  0.76950000  0.06680000  0.72150000  1.0
  O  O12  1  0.66850000  0.05670000  0.20810000  1.0
  O  O13  1  0.51460000  0.27040000  0.84270000  1.0
  O  O14  1  0.76680000  0.40440000  0.63590000  1.0
  O  O15  1  0.48540000  0.72960000  0.84270000  1.0
  O  O16  1  0.59560000  0.76680000  0.36410000  1.0
  O  O17  1  0.40440000  0.23320000  0.36410000  1.0
  O  O18  1  0.93320000  0.76950000  0.27850000  1.0
  O  O19  1  0.33150000  0.94330000  0.20810000  1.0
  O  O20  1  0.23320000  0.59560000  0.63590000  1.0
  O  O21  1  0.05670000  0.33150000  0.79190000  1.0
  O  O22  1  0.23050000  0.93320000  0.72150000  1.0
  O  O23  1  0.72960000  0.51460000  0.15730000  1.0
