# generated using pymatgen
data_RbAlSiO4
_symmetry_space_group_name_H-M   'P 1'
_cell_length_a   8.72400000
_cell_length_b   9.21700000
_cell_length_c   5.32100000
_cell_angle_alpha   90.00000000
_cell_angle_beta   90.00000000
_cell_angle_gamma   90.00000000
_symmetry_Int_Tables_number   1
_chemical_formula_structural   RbAlSiO4
_chemical_formula_sum   'Rb4 Al4 Si4 O16'
_cell_volume   427.85686367
_cell_formula_units_Z   4
loop_
 _symmetry_equiv_pos_site_id
 _symmetry_equiv_pos_as_xyz
  1  'x, y, z'
loop_
 _atom_site_type_symbol
 _atom_site_label
 _atom_site_symmetry_multiplicity
 _atom_site_fract_x
 _atom_site_fract_y
 _atom_site_fract_z
 _atom_site_occupancy
  Rb  Rb0  1  0.00121000  0.29598000  0.49994000  1.0
  Rb  Rb1  1  0.99879000  0.70402000  0.99994000  1.0
  Rb  Rb2  1  0.49879000  0.79598000  0.99994000  1.0
  Rb  Rb3  1  0.50121000  0.20402000  0.49994000  1.0
  Al  Al4  1  0.81297000  0.08370000  0.01126000  1.0
  Al  Al5  1  0.18703000  0.91630000  0.51126000  1.0
  Al  Al6  1  0.68703000  0.58370000  0.51126000  1.0
  Al  Al7  1  0.31297000  0.41630000  0.01126000  1.0
  Si  Si8  1  0.69384000  0.41609000  0.01013000  1.0
  Si  Si9  1  0.30616000  0.58391000  0.51013000  1.0
  Si  Si10  1  0.80616000  0.91609000  0.51013000  1.0
  Si  Si11  1  0.19384000  0.08391000  0.01013000  1.0
  O  O12  1  0.75310000  0.25680000  0.08170000  1.0
  O  O13  1  0.24690000  0.74320000  0.58170000  1.0
  O  O14  1  0.74690000  0.75680000  0.58170000  1.0
  O  O15  1  0.25310000  0.24320000  0.08170000  1.0
  O  O16  1  0.75950000  0.52850000  0.21880000  1.0
  O  O17  1  0.24050000  0.47150000  0.71880000  1.0
  O  O18  1  0.74050000  0.02850000  0.71880000  1.0
  O  O19  1  0.25950000  0.97150000  0.21880000  1.0
  O  O20  1  0.75520000  0.46410000  0.73830000  1.0
  O  O21  1  0.24480000  0.53590000  0.23830000  1.0
  O  O22  1  0.74480000  0.96410000  0.23830000  1.0
  O  O23  1  0.25520000  0.03590000  0.73830000  1.0
  O  O24  1  0.01070000  0.08560000  0.00760000  1.0
  O  O25  1  0.98930000  0.91440000  0.50760000  1.0
  O  O26  1  0.48930000  0.58560000  0.50760000  1.0
  O  O27  1  0.51070000  0.41440000  0.00760000  1.0
