# generated using pymatgen
data_SrAl2O4
_symmetry_space_group_name_H-M   'P 1'
_cell_length_a   5.17320000
_cell_length_b   8.88980000
_cell_length_c   8.50660000
_cell_angle_alpha   90.00000000
_cell_angle_beta   92.87499999
_cell_angle_gamma   90.00000000
_symmetry_Int_Tables_number   1
_chemical_formula_structural   SrAl2O4
_chemical_formula_sum   'Sr4 Al8 O16'
_cell_volume   390.71519073
_cell_formula_units_Z   4
loop_
 _symmetry_equiv_pos_site_id
 _symmetry_equiv_pos_as_xyz
  1  'x, y, z'
loop_
 _atom_site_type_symbol
 _atom_site_label
 _atom_site_symmetry_multiplicity
 _atom_site_fract_x
 _atom_site_fract_y
 _atom_site_fract_z
 _atom_site_occupancy
  Sr  Sr0  1  0.78890000  0.50610000  0.97500000  1.0
  Sr  Sr1  1  0.21110000  0.00610000  0.02500000  1.0
  Sr  Sr2  1  0.74700000  0.50000000  0.50320000  1.0
  Sr  Sr3  1  0.25300000  0.00000000  0.49680000  1.0
  Al  Al4  1  0.21400000  0.32900000  0.32100000  1.0
  Al  Al5  1  0.78600000  0.82900000  0.67900000  1.0
  Al  Al6  1  0.77400000  0.83900000  0.30200000  1.0
  Al  Al7  1  0.22600000  0.33900000  0.69800000  1.0
  Al  Al8  1  0.26300000  0.66800000  0.20400000  1.0
  Al  Al9  1  0.73700000  0.16800000  0.79600000  1.0
  Al  Al10  1  0.27200000  0.67100000  0.80700000  1.0
  Al  Al11  1  0.72800000  0.17100000  0.19300000  1.0
  O  O12  1  0.34320000  0.62170000  0.01060000  1.0
  O  O13  1  0.65680000  0.12170000  0.98940000  1.0
  O  O14  1  0.12900000  0.29240000  0.50510000  1.0
  O  O15  1  0.87100000  0.79240000  0.49490000  1.0
  O  O16  1  0.07800000  0.82880000  0.78930000  1.0
  O  O17  1  0.92200000  0.32880000  0.21070000  1.0
  O  O18  1  0.06930000  0.19660000  0.81290000  1.0
  O  O19  1  0.93070000  0.69660000  0.18710000  1.0
  O  O20  1  0.09890000  0.51390000  0.74220000  1.0
  O  O21  1  0.90110000  0.01390000  0.25780000  1.0
  O  O22  1  0.64200000  0.00860000  0.67850000  1.0
  O  O23  1  0.35800000  0.50860000  0.32150000  1.0
  O  O24  1  0.43200000  0.82930000  0.26130000  1.0
  O  O25  1  0.56800000  0.32930000  0.73870000  1.0
  O  O26  1  0.57820000  0.67980000  0.72830000  1.0
  O  O27  1  0.42180000  0.17980000  0.27170000  1.0
