# generated using pymatgen
data_SeO2
_symmetry_space_group_name_H-M   'P 1'
_cell_length_a   5.07100000
_cell_length_b   4.48320000
_cell_length_c   14.96720000
_cell_angle_alpha   90.00000000
_cell_angle_beta   90.00000000
_cell_angle_gamma   90.00000000
_symmetry_Int_Tables_number   1
_chemical_formula_structural   SeO2
_chemical_formula_sum   'Se8 O16'
_cell_volume   340.26892272
_cell_formula_units_Z   8
loop_
 _symmetry_equiv_pos_site_id
 _symmetry_equiv_pos_as_xyz
  1  'x, y, z'
loop_
 _atom_site_type_symbol
 _atom_site_label
 _atom_site_symmetry_multiplicity
 _atom_site_fract_x
 _atom_site_fract_y
 _atom_site_fract_z
 _atom_site_occupancy
  Se  Se0  1  0.50000000  0.51100000  0.74920000  1.0
  Se  Se1  1  0.50000000  0.97300000  0.00000000  1.0
  Se  Se2  1  0.00000000  0.10700000  0.18940000  1.0
  Se  Se3  1  0.00000000  0.34400000  0.93690000  1.0
  Se  Se4  1  0.00000000  0.89300000  0.68940000  1.0
  Se  Se5  1  0.00000000  0.65600000  0.43690000  1.0
  Se  Se6  1  0.50000000  0.02700000  0.50000000  1.0
  Se  Se7  1  0.50000000  0.48900000  0.24920000  1.0
  O  O8  1  0.25400000  0.37600000  0.17600000  1.0
  O  O9  1  0.25400000  0.62400000  0.67600000  1.0
  O  O10  1  0.75200000  0.06100000  0.91900000  1.0
  O  O11  1  0.00000000  0.02700000  0.59000000  1.0
  O  O12  1  0.74600000  0.62400000  0.67600000  1.0
  O  O13  1  0.50000000  0.83400000  0.22500000  1.0
  O  O14  1  0.24800000  0.06100000  0.91900000  1.0
  O  O15  1  0.00000000  0.97300000  0.09000000  1.0
  O  O16  1  0.50000000  0.16600000  0.72500000  1.0
  O  O17  1  0.50000000  0.38300000  0.48600000  1.0
  O  O18  1  0.00000000  0.52400000  0.33700000  1.0
  O  O19  1  0.50000000  0.61700000  0.98600000  1.0
  O  O20  1  0.00000000  0.47600000  0.83700000  1.0
  O  O21  1  0.75200000  0.93900000  0.41900000  1.0
  O  O22  1  0.24800000  0.93900000  0.41900000  1.0
  O  O23  1  0.74600000  0.37600000  0.17600000  1.0
