# generated using pymatgen
data_CsLiMoO4
_symmetry_space_group_name_H-M   'P 1'
_cell_length_a   6.05813294
_cell_length_b   6.05813294
_cell_length_c   6.05813294
_cell_angle_alpha   60.00000000
_cell_angle_beta   60.00000000
_cell_angle_gamma   60.00000000
_symmetry_Int_Tables_number   1
_chemical_formula_structural   CsLiMoO4
_chemical_formula_sum   'Cs1 Li1 Mo1 O4'
_cell_volume   157.21768606
_cell_formula_units_Z   1
loop_
 _symmetry_equiv_pos_site_id
 _symmetry_equiv_pos_as_xyz
  1  'x, y, z'
loop_
 _atom_site_type_symbol
 _atom_site_label
 _atom_site_symmetry_multiplicity
 _atom_site_fract_x
 _atom_site_fract_y
 _atom_site_fract_z
 _atom_site_occupancy
  Cs  Cs0  1  0.00000000  0.00000000  0.00000000  1.0
  Li  Li1  1  0.75000000  0.75000000  0.75000000  1.0
  Mo  Mo2  1  0.50000000  0.50000000  0.50000000  1.0
  O  O3  1  0.62047133  0.13858600  0.62047133  1.0
  O  O4  1  0.62047133  0.62047133  0.13858600  1.0
  O  O5  1  0.62047133  0.62047133  0.62047133  1.0
  O  O6  1  0.13858600  0.62047133  0.62047133  1.0
