# generated using pymatgen
data_CuClO2
_symmetry_space_group_name_H-M   'P 1'
_cell_length_a   3.54990001
_cell_length_b   6.89078982
_cell_length_c   6.89511000
_cell_angle_alpha   61.37544023
_cell_angle_beta   89.54484409
_cell_angle_gamma   89.11449729
_symmetry_Int_Tables_number   1
_chemical_formula_structural   CuClO2
_chemical_formula_sum   'Cu2 Cl2 O4'
_cell_volume   148.03312840
_cell_formula_units_Z   2
loop_
 _symmetry_equiv_pos_site_id
 _symmetry_equiv_pos_as_xyz
  1  'x, y, z'
loop_
 _atom_site_type_symbol
 _atom_site_label
 _atom_site_symmetry_multiplicity
 _atom_site_fract_x
 _atom_site_fract_y
 _atom_site_fract_z
 _atom_site_occupancy
  Cu  Cu0  1  0.02913000  0.76011000  0.34374000  1.0
  Cu  Cu1  1  0.51294000  0.08243000  0.67212000  1.0
  Cl  Cl2  1  0.53382000  0.64047000  0.22087000  1.0
  Cl  Cl3  1  0.00763000  0.20570000  0.79136000  1.0
  O  O4  1  0.21973000  0.84051000  0.69323000  1.0
  O  O5  1  0.72078000  0.00100000  0.32353000  1.0
  O  O6  1  0.81554000  0.10573000  0.42937000  1.0
  O  O7  1  0.32439000  0.73580000  0.58736000  1.0
