# generated using pymatgen
data_KP(HO2)2
_symmetry_space_group_name_H-M   'P 1'
_cell_length_a   6.30457572
_cell_length_b   6.30457572
_cell_length_c   6.30457572
_cell_angle_alpha   107.79174512
_cell_angle_beta   107.79174512
_cell_angle_gamma   112.88506103
_symmetry_Int_Tables_number   1
_chemical_formula_structural   KP(HO2)2
_chemical_formula_sum   'K2 P2 H4 O8'
_cell_volume   192.38907654
_cell_formula_units_Z   2
loop_
 _symmetry_equiv_pos_site_id
 _symmetry_equiv_pos_as_xyz
  1  'x, y, z'
loop_
 _atom_site_type_symbol
 _atom_site_label
 _atom_site_symmetry_multiplicity
 _atom_site_fract_x
 _atom_site_fract_y
 _atom_site_fract_z
 _atom_site_occupancy
  K  K4  1  0.75000000  0.25000000  0.50000000  1.0
  K  K5  1  0.50000000  0.50000000  0.00000000  1.0
  P  P14  1  0.25000000  0.75000000  0.50000000  1.0
  P  P15  1  0.00000000  0.00000000  0.00000000  1.0
  H  H0  1  0.12500000  0.02000000  0.39500000  1.0
  H  H1  1  0.62500000  0.73000000  0.60500000  1.0
  H  H2  1  0.27000000  0.87500000  0.89500000  1.0
  H  H3  1  0.98000000  0.37500000  0.10500000  1.0
  O  O6  1  0.30800000  0.03300000  0.56300000  1.0
  O  O7  1  0.94200000  0.00500000  0.22500000  1.0
  O  O8  1  0.47000000  0.74500000  0.43700000  1.0
  O  O9  1  0.78000000  0.71700000  0.77500000  1.0
  O  O10  1  0.25500000  0.69200000  0.72500000  1.0
  O  O11  1  0.99500000  0.22000000  0.93700000  1.0
  O  O12  1  0.96700000  0.53000000  0.27500000  1.0
  O  O13  1  0.28300000  0.05800000  0.06300000  1.0
