# generated using pymatgen
data_NbI2O
_symmetry_space_group_name_H-M   'P 1'
_cell_length_a   3.92399993
_cell_length_b   7.52000014
_cell_length_c   7.84142289
_cell_angle_alpha   104.99519495
_cell_angle_beta   104.48992072
_cell_angle_gamma   90.00000000
_symmetry_Int_Tables_number   1
_chemical_formula_structural   NbI2O
_chemical_formula_sum   'Nb2 I4 O2'
_cell_volume   215.88057482
_cell_formula_units_Z   2
loop_
 _symmetry_equiv_pos_site_id
 _symmetry_equiv_pos_as_xyz
  1  'x, y, z'
loop_
 _atom_site_type_symbol
 _atom_site_label
 _atom_site_symmetry_multiplicity
 _atom_site_fract_x
 _atom_site_fract_y
 _atom_site_fract_z
 _atom_site_occupancy
  Nb  Nb4  1  0.03340000  0.71000000  0.99900000  1.0
  Nb  Nb5  1  0.03440000  0.29000000  0.00100000  1.0
  I  I0  1  0.15560000  0.58540000  0.30980000  1.0
  I  I1  1  0.12870000  0.06820000  0.25740000  1.0
  I  I2  1  0.87130000  0.93180000  0.74260000  1.0
  I  I3  1  0.84580000  0.41460000  0.69020000  1.0
  O  O6  1  0.49630000  0.71020000  0.99980000  1.0
  O  O7  1  0.49650000  0.28980000  0.00020000  1.0
