# generated using pymatgen
data_NbI3O
_symmetry_space_group_name_H-M   'P 1'
_cell_length_a   3.99049972
_cell_length_b   7.57933812
_cell_length_c   11.11050019
_cell_angle_alpha   82.46709061
_cell_angle_beta   79.65456551
_cell_angle_gamma   74.73709200
_symmetry_Int_Tables_number   1
_chemical_formula_structural   NbI3O
_chemical_formula_sum   'Nb2 I6 O2'
_cell_volume   317.67144454
_cell_formula_units_Z   2
loop_
 _symmetry_equiv_pos_site_id
 _symmetry_equiv_pos_as_xyz
  1  'x, y, z'
loop_
 _atom_site_type_symbol
 _atom_site_label
 _atom_site_symmetry_multiplicity
 _atom_site_fract_x
 _atom_site_fract_y
 _atom_site_fract_z
 _atom_site_occupancy
  Nb  Nb6  1  0.94045000  0.05198000  0.19712000  1.0
  Nb  Nb7  1  0.18955000  0.94802000  0.80288000  1.0
  I  I0  1  0.66856000  0.37643000  0.29105000  1.0
  I  I1  1  0.88960000  0.25301000  0.95519000  1.0
  I  I2  1  0.11044000  0.18169000  0.60263000  1.0
  I  I3  1  0.09780000  0.74699000  0.04481000  1.0
  I  I4  1  0.33604000  0.62357000  0.70895000  1.0
  I  I5  1  0.89476000  0.81831000  0.39737000  1.0
  O  O8  1  0.62520000  0.94960000  0.81200000  1.0
  O  O9  1  0.38680000  0.05040000  0.18800000  1.0
