# generated using pymatgen
data_Na6ZnO4
_symmetry_space_group_name_H-M   'P 1'
_cell_length_a   7.56200000
_cell_length_b   7.56200000
_cell_length_c   5.85900000
_cell_angle_alpha   90.00000000
_cell_angle_beta   90.00000000
_cell_angle_gamma   120.00000000
_symmetry_Int_Tables_number   1
_chemical_formula_structural   Na6ZnO4
_chemical_formula_sum   'Na12 Zn2 O8'
_cell_volume   290.15327426
_cell_formula_units_Z   2
loop_
 _symmetry_equiv_pos_site_id
 _symmetry_equiv_pos_as_xyz
  1  'x, y, z'
loop_
 _atom_site_type_symbol
 _atom_site_label
 _atom_site_symmetry_multiplicity
 _atom_site_fract_x
 _atom_site_fract_y
 _atom_site_fract_z
 _atom_site_occupancy
  Na  Na0  1  0.92600001  0.46300000  0.13600000  1.0
  Na  Na1  1  0.46300000  0.53699999  0.63600000  1.0
  Na  Na2  1  0.14140000  0.85860000  0.96400000  1.0
  Na  Na3  1  0.28280000  0.14140000  0.46400000  1.0
  Na  Na4  1  0.85860000  0.71720000  0.46400000  1.0
  Na  Na5  1  0.14140000  0.28280000  0.96400000  1.0
  Na  Na6  1  0.71720000  0.85860000  0.96400000  1.0
  Na  Na7  1  0.85860000  0.14140000  0.46400000  1.0
  Na  Na8  1  0.53699999  0.46300000  0.13600000  1.0
  Na  Na9  1  0.07399999  0.53699999  0.63600000  1.0
  Na  Na10  1  0.46300000  0.92600001  0.63600000  1.0
  Na  Na11  1  0.53699999  0.07399999  0.13600000  1.0
  Zn  Zn12  1  0.66666667  0.33333333  0.75000000  1.0
  Zn  Zn13  1  0.33333333  0.66666667  0.25000000  1.0
  O  O14  1  0.18950000  0.81050000  0.35800000  1.0
  O  O15  1  0.37900000  0.18950000  0.85800000  1.0
  O  O16  1  0.33333333  0.66666667  0.90200000  1.0
  O  O17  1  0.66666667  0.33333333  0.40200000  1.0
  O  O18  1  0.81050000  0.18950000  0.85800000  1.0
  O  O19  1  0.62100000  0.81050000  0.35800000  1.0
  O  O20  1  0.18950000  0.37900000  0.35800000  1.0
  O  O21  1  0.81050000  0.62100000  0.85800000  1.0
