# generated using pymatgen
data_PdF4
_symmetry_space_group_name_H-M   'P 1'
_cell_length_a   5.46221530
_cell_length_b   5.46221530
_cell_length_c   5.50414628
_cell_angle_alpha   106.40565689
_cell_angle_beta   106.40565689
_cell_angle_gamma   115.51779415
_symmetry_Int_Tables_number   1
_chemical_formula_structural   PdF4
_chemical_formula_sum   'Pd2 F8'
_cell_volume   125.72796850
_cell_formula_units_Z   2
loop_
 _symmetry_equiv_pos_site_id
 _symmetry_equiv_pos_as_xyz
  1  'x, y, z'
loop_
 _atom_site_type_symbol
 _atom_site_label
 _atom_site_symmetry_multiplicity
 _atom_site_fract_x
 _atom_site_fract_y
 _atom_site_fract_z
 _atom_site_occupancy
  Pd  Pd8  1  0.75500000  0.75500000  0.00000000  1.0
  Pd  Pd9  1  0.00500000  0.50500000  0.50000000  1.0
  F  F0  1  0.56000000  0.27800000  0.31600000  1.0
  F  F1  1  0.96200000  0.24400000  0.68400000  1.0
  F  F2  1  0.97500000  0.21100000  0.18600000  1.0
  F  F3  1  0.02500000  0.78900000  0.81400000  1.0
  F  F4  1  0.46100000  0.72500000  0.68600000  1.0
  F  F5  1  0.03900000  0.77500000  0.31400000  1.0
  F  F6  1  0.49400000  0.71200000  0.18400000  1.0
  F  F7  1  0.52800000  0.31000000  0.81600000  1.0
