# generated using pymatgen
data_K2Zn(GeO3)2
_symmetry_space_group_name_H-M   'P 1'
_cell_length_a   5.83773924
_cell_length_b   5.83773924
_cell_length_c   10.80780000
_cell_angle_alpha   90.00000000
_cell_angle_beta   90.00000000
_cell_angle_gamma   113.97333126
_symmetry_Int_Tables_number   1
_chemical_formula_structural   K2Zn(GeO3)2
_chemical_formula_sum   'K4 Zn2 Ge4 O12'
_cell_volume   336.54782689
_cell_formula_units_Z   2
loop_
 _symmetry_equiv_pos_site_id
 _symmetry_equiv_pos_as_xyz
  1  'x, y, z'
loop_
 _atom_site_type_symbol
 _atom_site_label
 _atom_site_symmetry_multiplicity
 _atom_site_fract_x
 _atom_site_fract_y
 _atom_site_fract_z
 _atom_site_occupancy
  K  K4  1  0.56210000  0.21730000  0.92890000  1.0
  K  K5  1  0.78270000  0.43790000  0.57110000  1.0
  K  K6  1  0.43790000  0.78270000  0.42890000  1.0
  K  K7  1  0.21730000  0.56210000  0.07110000  1.0
  Zn  Zn20  1  0.69840000  0.30160000  0.75000000  1.0
  Zn  Zn21  1  0.30160000  0.69840000  0.25000000  1.0
  Ge  Ge0  1  0.17190000  0.14870000  0.63990000  1.0
  Ge  Ge1  1  0.85130000  0.82810000  0.86010000  1.0
  Ge  Ge2  1  0.82810000  0.85130000  0.13990000  1.0
  Ge  Ge3  1  0.14870000  0.17190000  0.36010000  1.0
  O  O8  1  0.28930000  0.47550000  0.62280000  1.0
  O  O9  1  0.03380000  0.38860000  0.32760000  1.0
  O  O10  1  0.38860000  0.03380000  0.67240000  1.0
  O  O11  1  0.71070000  0.52450000  0.12280000  1.0
  O  O12  1  0.99840000  0.99840000  0.50000000  1.0
  O  O13  1  0.96620000  0.61140000  0.82760000  1.0
  O  O14  1  0.92990000  0.07010000  0.75000000  1.0
  O  O15  1  0.61140000  0.96620000  0.17240000  1.0
  O  O16  1  0.00160000  0.00160000  0.00000000  1.0
  O  O17  1  0.07010000  0.92990000  0.25000000  1.0
  O  O18  1  0.52450000  0.71070000  0.87720000  1.0
  O  O19  1  0.47550000  0.28930000  0.37720000  1.0
