# generated using pymatgen
data_RbLiCrO4
_symmetry_space_group_name_H-M   'P 1'
_cell_length_a   5.42300000
_cell_length_b   5.42300000
_cell_length_c   9.16100000
_cell_angle_alpha   90.00000000
_cell_angle_beta   90.00000000
_cell_angle_gamma   120.00000000
_symmetry_Int_Tables_number   1
_chemical_formula_structural   RbLiCrO4
_chemical_formula_sum   'Rb2 Li2 Cr2 O8'
_cell_volume   233.32040613
_cell_formula_units_Z   2
loop_
 _symmetry_equiv_pos_site_id
 _symmetry_equiv_pos_as_xyz
  1  'x, y, z'
loop_
 _atom_site_type_symbol
 _atom_site_label
 _atom_site_symmetry_multiplicity
 _atom_site_fract_x
 _atom_site_fract_y
 _atom_site_fract_z
 _atom_site_occupancy
  Rb  Rb0  1  0.00000000  0.00000000  0.47493741  1.0
  Rb  Rb1  1  0.00000000  0.00000000  0.97493741  1.0
  Li  Li2  1  0.33333333  0.66666667  0.29137190  1.0
  Li  Li3  1  0.66666667  0.33333333  0.79137190  1.0
  Cr  Cr4  1  0.66666667  0.33333333  0.18023630  1.0
  Cr  Cr5  1  0.33333333  0.66666667  0.68023630  1.0
  O  O6  1  0.35104558  0.38920225  0.73730389  1.0
  O  O7  1  0.03815667  0.64895442  0.73730389  1.0
  O  O8  1  0.61079775  0.96184333  0.73730389  1.0
  O  O9  1  0.96184333  0.61079775  0.23730389  1.0
  O  O10  1  0.33333333  0.66666667  0.50174479  1.0
  O  O11  1  0.64895442  0.03815667  0.23730389  1.0
  O  O12  1  0.38920225  0.35104558  0.23730389  1.0
  O  O13  1  0.66666667  0.33333333  0.00174479  1.0
