# generated using pymatgen
data_RbTe
_symmetry_space_group_name_H-M   'P 1'
_cell_length_a   9.93500000
_cell_length_b   9.93500000
_cell_length_c   6.62700000
_cell_angle_alpha   90.00000000
_cell_angle_beta   90.00000000
_cell_angle_gamma   120.00000000
_symmetry_Int_Tables_number   1
_chemical_formula_structural   RbTe
_chemical_formula_sum   'Rb6 Te6'
_cell_volume   566.47838754
_cell_formula_units_Z   6
loop_
 _symmetry_equiv_pos_site_id
 _symmetry_equiv_pos_as_xyz
  1  'x, y, z'
loop_
 _atom_site_type_symbol
 _atom_site_label
 _atom_site_symmetry_multiplicity
 _atom_site_fract_x
 _atom_site_fract_y
 _atom_site_fract_z
 _atom_site_occupancy
  Rb  Rb0  1  0.67300000  0.00000000  0.00000000  1.0
  Rb  Rb1  1  0.32700000  0.32700000  -0.00000000  1.0
  Rb  Rb2  1  0.00000000  0.67300000  0.00000000  1.0
  Rb  Rb3  1  0.29000000  0.00000000  0.50000000  1.0
  Rb  Rb4  1  0.71000000  0.71000000  0.50000000  1.0
  Rb  Rb5  1  0.00000000  0.29000000  0.50000000  1.0
  Te  Te6  1  0.00000000  0.00000000  0.21000000  1.0
  Te  Te7  1  0.00000000  0.00000000  0.79000000  1.0
  Te  Te8  1  0.33333333  0.66666667  0.29000000  1.0
  Te  Te9  1  0.33333333  0.66666667  0.71000000  1.0
  Te  Te10  1  0.66666667  0.33333333  0.71000000  1.0
  Te  Te11  1  0.66666667  0.33333333  0.29000000  1.0
