# generated using pymatgen
data_CuO2F
_symmetry_space_group_name_H-M   'P 1'
_cell_length_a   3.94792000
_cell_length_b   5.20085003
_cell_length_c   5.20085003
_cell_angle_alpha   103.51010249
_cell_angle_beta   90.00000000
_cell_angle_gamma   90.00000000
_symmetry_Int_Tables_number   1
_chemical_formula_structural   CuO2F
_chemical_formula_sum   'Cu2 O4 F2'
_cell_volume   103.83173946
_cell_formula_units_Z   2
loop_
 _symmetry_equiv_pos_site_id
 _symmetry_equiv_pos_as_xyz
  1  'x, y, z'
loop_
 _atom_site_type_symbol
 _atom_site_label
 _atom_site_symmetry_multiplicity
 _atom_site_fract_x
 _atom_site_fract_y
 _atom_site_fract_z
 _atom_site_occupancy
  Cu  Cu0  1  0.00000000  0.28378000  0.28378000  1.0
  Cu  Cu1  1  0.50000000  0.71622000  0.71622000  1.0
  O  O4  1  0.28058000  0.21342000  0.98622000  1.0
  O  O5  1  0.21942000  0.01378000  0.78658000  1.0
  O  O6  1  0.78058000  0.78658000  0.01378000  1.0
  O  O7  1  0.71942000  0.98622000  0.21342000  1.0
  F  F2  1  0.75000000  0.39149000  0.60851000  1.0
  F  F3  1  0.25000000  0.60851000  0.39149000  1.0
