# generated using pymatgen
data_AlHO2
_symmetry_space_group_name_H-M   'P 1'
_cell_length_a   2.86840000
_cell_length_b   3.69490000
_cell_length_c   6.28205543
_cell_angle_alpha   90.00000000
_cell_angle_beta   103.19706946
_cell_angle_gamma   90.00000000
_symmetry_Int_Tables_number   1
_chemical_formula_structural   AlHO2
_chemical_formula_sum   'Al2 H2 O4'
_cell_volume   64.82171703
_cell_formula_units_Z   2
loop_
 _symmetry_equiv_pos_site_id
 _symmetry_equiv_pos_as_xyz
  1  'x, y, z'
loop_
 _atom_site_type_symbol
 _atom_site_label
 _atom_site_symmetry_multiplicity
 _atom_site_fract_x
 _atom_site_fract_y
 _atom_site_fract_z
 _atom_site_occupancy
  Al  Al0  1  0.32080000  0.25000000  0.64160000  1.0
  Al  Al1  1  0.67920000  0.75000000  0.35840000  1.0
  H  H2  1  0.97720000  0.43165500  0.95440000  1.0
  H  H3  1  0.02280000  0.93165500  0.04560000  1.0
  O  O4  1  0.70570000  0.25000000  0.41140000  1.0
  O  O5  1  0.29430000  0.75000000  0.58860000  1.0
  O  O6  1  0.91660000  0.25000000  0.83320000  1.0
  O  O7  1  0.08340000  0.75000000  0.16680000  1.0
