# generated using pymatgen
data_Li2BeSiO4
_symmetry_space_group_name_H-M   'P 1'
_cell_length_a   4.68000000
_cell_length_b   4.95000000
_cell_length_c   7.69082799
_cell_angle_alpha   90.00000000
_cell_angle_beta   127.15162471
_cell_angle_gamma   90.00000000
_symmetry_Int_Tables_number   1
_chemical_formula_structural   Li2BeSiO4
_chemical_formula_sum   'Li4 Be2 Si2 O8'
_cell_volume   142.00522461
_cell_formula_units_Z   2
loop_
 _symmetry_equiv_pos_site_id
 _symmetry_equiv_pos_as_xyz
  1  'x, y, z'
loop_
 _atom_site_type_symbol
 _atom_site_label
 _atom_site_symmetry_multiplicity
 _atom_site_fract_x
 _atom_site_fract_y
 _atom_site_fract_z
 _atom_site_occupancy
  Li  Li0  1  0.44000000  0.83800000  0.44000000  1.0
  Li  Li1  1  0.44000000  0.16200000  0.94000000  1.0
  Li  Li2  1  0.76500000  0.67500000  0.26500000  1.0
  Li  Li3  1  0.76500000  0.32500000  0.76500000  1.0
  Be  Be4  1  0.27500000  0.67000000  0.75500000  1.0
  Be  Be5  1  0.27500000  0.33000000  0.25500000  1.0
  Si  Si6  1  0.00000000  0.83000000  0.00000000  1.0
  Si  Si7  1  0.00000000  0.17000000  0.50000000  1.0
  O  O8  1  0.30500000  0.84000000  0.95000000  1.0
  O  O9  1  0.64000000  0.34500000  0.29500000  1.0
  O  O10  1  0.96500000  0.15000000  0.04500000  1.0
  O  O11  1  0.30500000  0.16000000  0.45000000  1.0
  O  O12  1  0.96500000  0.85000000  0.54500000  1.0
  O  O13  1  0.18500000  0.65000000  0.26500000  1.0
  O  O14  1  0.18500000  0.35000000  0.76500000  1.0
  O  O15  1  0.64000000  0.65500000  0.79500000  1.0
