# generated using pymatgen
data_SrTeO3
_symmetry_space_group_name_H-M   'P 1'
_cell_length_a   5.89699991
_cell_length_b   14.38100618
_cell_length_c   14.54233720
_cell_angle_alpha   63.68887737
_cell_angle_beta   78.30201688
_cell_angle_gamma   78.16889841
_symmetry_Int_Tables_number   1
_chemical_formula_structural   SrTeO3
_chemical_formula_sum   'Sr12 Te12 O36'
_cell_volume   1073.17708720
_cell_formula_units_Z   12
loop_
 _symmetry_equiv_pos_site_id
 _symmetry_equiv_pos_as_xyz
  1  'x, y, z'
loop_
 _atom_site_type_symbol
 _atom_site_label
 _atom_site_symmetry_multiplicity
 _atom_site_fract_x
 _atom_site_fract_y
 _atom_site_fract_z
 _atom_site_occupancy
  Sr  Sr36  1  0.95744000  0.63903000  0.60629000  1.0
  Sr  Sr37  1  0.78178000  0.61693000  0.88951000  1.0
  Sr  Sr38  1  0.20276000  0.36097000  0.39371000  1.0
  Sr  Sr39  1  0.09390000  0.00000000  0.00000000  1.0
  Sr  Sr40  1  0.68713000  0.90320000  0.84414000  1.0
  Sr  Sr41  1  0.43103000  0.82704000  0.41850000  1.0
  Sr  Sr42  1  0.28822000  0.38307000  0.11049000  1.0
  Sr  Sr43  1  0.43447000  0.09680000  0.15586000  1.0
  Sr  Sr44  1  0.28151000  0.79256000  0.72142000  1.0
  Sr  Sr45  1  0.60340000  0.50000000  0.50000000  1.0
  Sr  Sr46  1  0.67657000  0.17296000  0.58150000  1.0
  Sr  Sr47  1  0.79549000  0.20744000  0.27858000  1.0
  Te  Te48  1  0.59247000  0.80998000  0.14820000  1.0
  Te  Te49  1  0.81017000  0.89326000  0.58116000  1.0
  Te  Te50  1  0.07338000  0.33428000  0.65256000  1.0
  Te  Te51  1  0.06022000  0.66572000  0.34744000  1.0
  Te  Te52  1  0.69088000  0.48593000  0.22079000  1.0
  Te  Te53  1  0.93096000  0.29776000  0.00072000  1.0
  Te  Te54  1  0.28459000  0.10674000  0.41884000  1.0
  Te  Te55  1  0.17192000  0.05155000  0.72141000  1.0
  Te  Te56  1  0.55065000  0.19002000  0.85180000  1.0
  Te  Te57  1  0.94488000  0.94845000  0.27859000  1.0
  Te  Te58  1  0.39760000  0.51407000  0.77921000  1.0
  Te  Te59  1  0.22944000  0.70224000  0.99928000  1.0
  O  O0  1  0.91500000  0.04760000  0.14600000  1.0
  O  O1  1  0.97710000  0.72980000  0.93060000  1.0
  O  O2  1  0.09200000  0.24220000  0.11560000  1.0
  O  O3  1  0.55780000  0.47850000  0.34590000  1.0
  O  O4  1  0.78420000  0.69390000  0.42530000  1.0
  O  O5  1  0.35130000  0.56630000  0.01650000  1.0
  O  O6  1  0.10860000  0.95240000  0.85400000  1.0
  O  O7  1  0.44980000  0.75780000  0.88440000  1.0
  O  O8  1  0.11410000  0.01950000  0.31690000  1.0
  O  O9  1  0.01110000  0.53170000  0.37890000  1.0
  O  O10  1  0.35490000  0.34520000  0.56240000  1.0
  O  O11  1  0.99470000  0.18430000  0.42950000  1.0
  O  O12  1  0.47930000  0.87730000  0.02210000  1.0
  O  O13  1  0.54900000  0.10480000  0.78420000  1.0
  O  O14  1  0.45840000  0.17880000  0.45480000  1.0
  O  O15  1  0.90340000  0.30610000  0.57470000  1.0
  O  O16  1  0.14430000  0.61690000  0.77070000  1.0
  O  O17  1  0.97730000  0.40030000  0.24670000  1.0
  O  O18  1  0.60850000  0.81570000  0.57050000  1.0
  O  O19  1  0.38220000  0.52150000  0.65410000  1.0
  O  O20  1  0.37870000  0.12270000  0.97790000  1.0
  O  O21  1  0.36500000  0.18740000  0.27880000  1.0
  O  O22  1  0.88640000  0.84800000  0.11320000  1.0
  O  O23  1  0.65060000  0.98690000  0.33710000  1.0
  O  O24  1  0.93410000  0.43370000  0.98350000  1.0
  O  O25  1  0.97460000  0.01310000  0.66290000  1.0
  O  O26  1  0.26250000  0.65480000  0.43760000  1.0
  O  O27  1  0.92170000  0.46830000  0.62110000  1.0
  O  O28  1  0.53190000  0.38310000  0.22930000  1.0
  O  O29  1  0.84760000  0.15200000  0.88680000  1.0
  O  O30  1  0.09200000  0.82120000  0.54520000  1.0
  O  O31  1  0.43800000  0.89520000  0.21580000  1.0
  O  O32  1  0.45050000  0.98050000  0.68310000  1.0
  O  O33  1  0.62430000  0.59970000  0.75330000  1.0
  O  O34  1  0.63750000  0.27020000  0.06940000  1.0
  O  O35  1  0.83120000  0.81260000  0.72120000  1.0
