# generated using pymatgen
data_PNO
_symmetry_space_group_name_H-M   'P 1'
_cell_length_a   4.75700007
_cell_length_b   4.75700007
_cell_length_c   4.75700000
_cell_angle_alpha   90.00000000
_cell_angle_beta   90.00000000
_cell_angle_gamma   120.00000000
_symmetry_Int_Tables_number   1
_chemical_formula_structural   PNO
_chemical_formula_sum   'P3 N3 O3'
_cell_volume   93.22450773
_cell_formula_units_Z   3
loop_
 _symmetry_equiv_pos_site_id
 _symmetry_equiv_pos_as_xyz
  1  'x, y, z'
loop_
 _atom_site_type_symbol
 _atom_site_label
 _atom_site_symmetry_multiplicity
 _atom_site_fract_x
 _atom_site_fract_y
 _atom_site_fract_z
 _atom_site_occupancy
  P  P0  1  0.00000000  0.47240000  0.33333333  1.0
  P  P1  1  0.52760000  0.52760000  0.99999967  1.0
  P  P2  1  0.47240000  0.00000000  0.66666667  1.0
  N  N3  1  0.40530000  0.26690000  0.78260000  1.0
  N  N4  1  0.86160000  0.59470000  0.11593333  1.0
  N  N5  1  0.73310000  0.13840000  0.44926667  1.0
  O  O6  1  0.13840000  0.73310000  0.55073300  1.0
  O  O7  1  0.26690000  0.40530000  0.21739967  1.0
  O  O8  1  0.59470000  0.86160000  0.88406633  1.0
