# generated using pymatgen
data_Ba(BO2)2
_symmetry_space_group_name_H-M   'P 1'
_cell_length_a   8.37458025
_cell_length_b   8.37458025
_cell_length_c   8.37458025
_cell_angle_alpha   96.85163777
_cell_angle_beta   96.85163777
_cell_angle_gamma   96.85163777
_symmetry_Int_Tables_number   1
_chemical_formula_structural   Ba(BO2)2
_chemical_formula_sum   'Ba6 B12 O24'
_cell_volume   573.64379367
_cell_formula_units_Z   6
loop_
 _symmetry_equiv_pos_site_id
 _symmetry_equiv_pos_as_xyz
  1  'x, y, z'
loop_
 _atom_site_type_symbol
 _atom_site_label
 _atom_site_symmetry_multiplicity
 _atom_site_fract_x
 _atom_site_fract_y
 _atom_site_fract_z
 _atom_site_occupancy
  Ba  Ba12  1  0.62077000  0.97610900  0.25663100  1.0
  Ba  Ba13  1  0.97610900  0.25663100  0.62077000  1.0
  Ba  Ba14  1  0.25663100  0.62077000  0.97610900  1.0
  Ba  Ba15  1  0.12077000  0.75663100  0.47610900  1.0
  Ba  Ba16  1  0.75663100  0.47610900  0.12077000  1.0
  Ba  Ba17  1  0.47610900  0.12077000  0.75663100  1.0
  B  B0  1  0.95010000  0.90660000  0.12350000  1.0
  B  B1  1  0.90660000  0.12350000  0.95010000  1.0
  B  B2  1  0.12350000  0.95010000  0.90660000  1.0
  B  B3  1  0.45010000  0.62350000  0.40660000  1.0
  B  B4  1  0.62350000  0.40660000  0.45010000  1.0
  B  B5  1  0.40660000  0.45010000  0.62350000  1.0
  B  B6  1  0.73380000  0.87800000  0.65300000  1.0
  B  B7  1  0.65300000  0.73380000  0.87800000  1.0
  B  B8  1  0.87800000  0.65300000  0.73380000  1.0
  B  B9  1  0.15300000  0.37800000  0.23380000  1.0
  B  B10  1  0.23380000  0.15300000  0.37800000  1.0
  B  B11  1  0.37800000  0.23380000  0.15300000  1.0
  O  O18  1  0.53680000  0.37190000  0.57870000  1.0
  O  O19  1  0.57870000  0.53680000  0.37190000  1.0
  O  O20  1  0.37190000  0.57870000  0.53680000  1.0
  O  O21  1  0.07870000  0.87190000  0.03680000  1.0
  O  O22  1  0.03680000  0.07870000  0.87190000  1.0
  O  O23  1  0.87190000  0.03680000  0.07870000  1.0
  O  O24  1  0.71760000  0.00080000  0.57010000  1.0
  O  O25  1  0.57010000  0.71760000  0.00080000  1.0
  O  O26  1  0.00080000  0.57010000  0.71760000  1.0
  O  O27  1  0.07010000  0.50080000  0.21760000  1.0
  O  O28  1  0.21760000  0.07010000  0.50080000  1.0
  O  O29  1  0.50080000  0.21760000  0.07010000  1.0
  O  O30  1  0.63480000  0.85090000  0.77460000  1.0
  O  O31  1  0.77460000  0.63480000  0.85090000  1.0
  O  O32  1  0.85090000  0.77460000  0.63480000  1.0
  O  O33  1  0.27460000  0.35090000  0.13480000  1.0
  O  O34  1  0.13480000  0.27460000  0.35090000  1.0
  O  O35  1  0.35090000  0.13480000  0.27460000  1.0
  O  O36  1  0.32470000  0.40260000  0.73790000  1.0
  O  O37  1  0.73790000  0.32470000  0.40260000  1.0
  O  O38  1  0.40260000  0.73790000  0.32470000  1.0
  O  O39  1  0.23790000  0.90260000  0.82470000  1.0
  O  O40  1  0.82470000  0.23790000  0.90260000  1.0
  O  O41  1  0.90260000  0.82470000  0.23790000  1.0
