# generated using pymatgen
data_Ti(PS3)2
_symmetry_space_group_name_H-M   'P 1'
_cell_length_a   6.57462098
_cell_length_b   6.57462098
_cell_length_c   11.39199088
_cell_angle_alpha   100.64732810
_cell_angle_beta   100.64732810
_cell_angle_gamma   111.08259417
_symmetry_Int_Tables_number   1
_chemical_formula_structural   Ti(PS3)2
_chemical_formula_sum   'Ti2 P4 S12'
_cell_volume   434.27739443
_cell_formula_units_Z   2
loop_
 _symmetry_equiv_pos_site_id
 _symmetry_equiv_pos_as_xyz
  1  'x, y, z'
loop_
 _atom_site_type_symbol
 _atom_site_label
 _atom_site_symmetry_multiplicity
 _atom_site_fract_x
 _atom_site_fract_y
 _atom_site_fract_z
 _atom_site_occupancy
  Ti  Ti16  1  0.85010000  0.35010000  0.70020000  1.0
  Ti  Ti17  1  0.60010000  0.60010000  0.20020000  1.0
  P  P0  1  0.63870000  0.01130000  0.38140000  1.0
  P  P1  1  0.26130000  0.38870000  0.88140000  1.0
  P  P2  1  0.62010000  0.49270000  0.88140000  1.0
  P  P3  1  0.74270000  0.37010000  0.38140000  1.0
  S  S4  1  0.18430000  0.65610000  0.85280000  1.0
  S  S5  1  0.66850000  0.19670000  0.85280000  1.0
  S  S6  1  0.55950000  0.01110000  0.54300000  1.0
  S  S7  1  0.98350000  0.53190000  0.54300000  1.0
  S  S8  1  0.78190000  0.73350000  0.04300000  1.0
  S  S9  1  0.26110000  0.30950000  0.04300000  1.0
  S  S10  1  0.85030000  0.40470000  0.22520000  1.0
  S  S11  1  0.37490000  0.82050000  0.22520000  1.0
  S  S12  1  0.07050000  0.12490000  0.72520000  1.0
  S  S13  1  0.65470000  0.60030000  0.72520000  1.0
  S  S14  1  0.90610000  0.93430000  0.35280000  1.0
  S  S15  1  0.44670000  0.41850000  0.35280000  1.0
