# generated using pymatgen
data_Hf(PS3)2
_symmetry_space_group_name_H-M   'P 1'
_cell_length_a   6.65290585
_cell_length_b   6.65290585
_cell_length_c   11.62156014
_cell_angle_alpha   100.41161732
_cell_angle_beta   100.41161732
_cell_angle_gamma   111.63098097
_symmetry_Int_Tables_number   1
_chemical_formula_structural   Hf(PS3)2
_chemical_formula_sum   'Hf2 P4 S12'
_cell_volume   452.75040295
_cell_formula_units_Z   2
loop_
 _symmetry_equiv_pos_site_id
 _symmetry_equiv_pos_as_xyz
  1  'x, y, z'
loop_
 _atom_site_type_symbol
 _atom_site_label
 _atom_site_symmetry_multiplicity
 _atom_site_fract_x
 _atom_site_fract_y
 _atom_site_fract_z
 _atom_site_occupancy
  Hf  Hf0  1  0.85010000  0.35010000  0.70020000  1.0
  Hf  Hf1  1  0.60010000  0.60010000  0.20020000  1.0
  P  P2  1  0.63580000  0.00900000  0.38140000  1.0
  P  P3  1  0.25900000  0.38580000  0.88140000  1.0
  P  P4  1  0.62240000  0.49560000  0.88140000  1.0
  P  P5  1  0.74560000  0.37240000  0.38140000  1.0
  S  S6  1  0.19720000  0.65640000  0.85680000  1.0
  S  S7  1  0.65960000  0.20040000  0.85680000  1.0
  S  S8  1  0.55570000  0.00370000  0.53580000  1.0
  S  S9  1  0.98010000  0.53210000  0.53580000  1.0
  S  S10  1  0.78210000  0.73010000  0.03580000  1.0
  S  S11  1  0.25370000  0.30570000  0.03580000  1.0
  S  S12  1  0.85730000  0.40190000  0.22780000  1.0
  S  S13  1  0.37050000  0.82590000  0.22780000  1.0
  S  S14  1  0.07590000  0.12050000  0.72780000  1.0
  S  S15  1  0.65190000  0.60730000  0.72780000  1.0
  S  S16  1  0.90640000  0.94720000  0.35680000  1.0
  S  S17  1  0.45040000  0.40960000  0.35680000  1.0
