# generated using pymatgen
data_BaAlBO3F2
_symmetry_space_group_name_H-M   'P 1'
_cell_length_a   4.88790019
_cell_length_b   4.88790019
_cell_length_c   9.40300000
_cell_angle_alpha   90.00000000
_cell_angle_beta   90.00000000
_cell_angle_gamma   120.00000000
_symmetry_Int_Tables_number   1
_chemical_formula_structural   BaAlBO3F2
_chemical_formula_sum   'Ba2 Al2 B2 O6 F4'
_cell_volume   194.55469964
_cell_formula_units_Z   2
loop_
 _symmetry_equiv_pos_site_id
 _symmetry_equiv_pos_as_xyz
  1  'x, y, z'
loop_
 _atom_site_type_symbol
 _atom_site_label
 _atom_site_symmetry_multiplicity
 _atom_site_fract_x
 _atom_site_fract_y
 _atom_site_fract_z
 _atom_site_occupancy
  Ba  Ba0  1  0.00000000  0.00000000  0.75026000  1.0
  Ba  Ba1  1  0.00000000  0.00000000  0.24974000  1.0
  Al  Al2  1  0.66666667  0.33333333  0.00000000  1.0
  Al  Al3  1  0.33333333  0.66666667  0.50000000  1.0
  B  B4  1  0.33333333  0.66666667  0.00000000  1.0
  B  B5  1  0.66666667  0.33333333  0.50000000  1.0
  O  O6  1  0.38060000  0.05670000  0.50000000  1.0
  O  O7  1  0.32500000  0.94250000  0.00000000  1.0
  O  O8  1  0.67610000  0.61940000  0.50000000  1.0
  O  O9  1  0.61750000  0.67500000  0.00000000  1.0
  O  O10  1  0.05750000  0.38250000  0.00000000  1.0
  O  O11  1  0.94330000  0.32390000  0.50000000  1.0
  F  F12  1  0.66666667  0.33333333  0.79620000  1.0
  F  F13  1  0.33333333  0.66666667  0.68620000  1.0
  F  F14  1  0.33333333  0.66666667  0.31380000  1.0
  F  F15  1  0.66666667  0.33333333  0.20380000  1.0
