# generated using pymatgen
data_Sc2TiO5
_symmetry_space_group_name_H-M   'P 1'
_cell_length_a   3.87633700
_cell_length_b   5.46505060
_cell_length_c   10.34579200
_cell_angle_alpha   90.00000000
_cell_angle_beta   90.00000000
_cell_angle_gamma   110.77186410
_symmetry_Int_Tables_number   1
_chemical_formula_structural   Sc2TiO5
_chemical_formula_sum   'Sc4 Ti2 O10'
_cell_volume   204.92315873
_cell_formula_units_Z   2
loop_
 _symmetry_equiv_pos_site_id
 _symmetry_equiv_pos_as_xyz
  1  'x, y, z'
loop_
 _atom_site_type_symbol
 _atom_site_label
 _atom_site_symmetry_multiplicity
 _atom_site_fract_x
 _atom_site_fract_y
 _atom_site_fract_z
 _atom_site_occupancy
  Sc  Sc10  1  0.36302150  0.72604300  0.43661300  1.0
  Sc  Sc11  1  0.30594400  0.61188800  0.74955300  1.0
  Sc  Sc12  1  0.69405600  0.38811200  0.24955300  1.0
  Sc  Sc13  1  0.63697850  0.27395700  0.93661300  1.0
  Ti  Ti14  1  0.36583900  0.73167800  0.05917200  1.0
  Ti  Ti15  1  0.63416100  0.26832200  0.55917200  1.0
  O  O0  1  0.44608400  0.89216800  0.89115100  1.0
  O  O1  1  0.18620350  0.37240700  0.57039700  1.0
  O  O2  1  0.27002750  0.54005500  0.24221500  1.0
  O  O3  1  0.19876850  0.39753700  0.93177900  1.0
  O  O4  1  0.46311250  0.92622500  0.61912100  1.0
  O  O5  1  0.72997250  0.45994500  0.74221500  1.0
  O  O6  1  0.81379650  0.62759300  0.07039700  1.0
  O  O7  1  0.55391600  0.10783200  0.39115100  1.0
  O  O8  1  0.53688750  0.07377500  0.11912100  1.0
  O  O9  1  0.80123150  0.60246300  0.43177900  1.0
