# generated using pymatgen
data_TeOF2
_symmetry_space_group_name_H-M   'P 1'
_cell_length_a   5.30700000
_cell_length_b   8.28900000
_cell_length_c   5.51299995
_cell_angle_alpha   90.00000000
_cell_angle_beta   96.22000470
_cell_angle_gamma   90.00000000
_symmetry_Int_Tables_number   1
_chemical_formula_structural   TeOF2
_chemical_formula_sum   'Te4 O4 F8'
_cell_volume   241.08770033
_cell_formula_units_Z   4
loop_
 _symmetry_equiv_pos_site_id
 _symmetry_equiv_pos_as_xyz
  1  'x, y, z'
loop_
 _atom_site_type_symbol
 _atom_site_label
 _atom_site_symmetry_multiplicity
 _atom_site_fract_x
 _atom_site_fract_y
 _atom_site_fract_z
 _atom_site_occupancy
  Te  Te0  1  0.51140000  0.85360000  0.35450000  1.0
  Te  Te1  1  0.12500000  0.09190000  0.95820000  1.0
  Te  Te2  1  0.48860000  0.35360000  0.64550000  1.0
  Te  Te3  1  0.87500000  0.59190000  0.04180000  1.0
  O  O4  1  0.69900000  0.37900000  0.95400000  1.0
  O  O5  1  0.40300000  0.15200000  0.77800000  1.0
  O  O6  1  0.30100000  0.87900000  0.04600000  1.0
  O  O7  1  0.59700000  0.65200000  0.22200000  1.0
  F  F8  1  0.65000000  0.68400000  0.71700000  1.0
  F  F9  1  0.35000000  0.18400000  0.28300000  1.0
  F  F10  1  0.00700000  0.93900000  0.68800000  1.0
  F  F11  1  0.77900000  0.24300000  0.54300000  1.0
  F  F12  1  0.99300000  0.43900000  0.31200000  1.0
  F  F13  1  0.18700000  0.42900000  0.83700000  1.0
  F  F14  1  0.22100000  0.74300000  0.45700000  1.0
  F  F15  1  0.81300000  0.92900000  0.16300000  1.0
