# generated using pymatgen
data_H4CN2O
_symmetry_space_group_name_H-M   'P 1'
_cell_length_a   5.59800000
_cell_length_b   5.59800000
_cell_length_c   4.65900000
_cell_angle_alpha   90.00000000
_cell_angle_beta   90.00000000
_cell_angle_gamma   90.00000000
_symmetry_Int_Tables_number   1
_chemical_formula_structural   H4CN2O
_chemical_formula_sum   'H8 C2 N4 O2'
_cell_volume   146.00189704
_cell_formula_units_Z   2
loop_
 _symmetry_equiv_pos_site_id
 _symmetry_equiv_pos_as_xyz
  1  'x, y, z'
loop_
 _atom_site_type_symbol
 _atom_site_label
 _atom_site_symmetry_multiplicity
 _atom_site_fract_x
 _atom_site_fract_y
 _atom_site_fract_z
 _atom_site_occupancy
  H  H0  1  0.64330000  0.85670000  0.45770000  1.0
  H  H1  1  0.85670000  0.35670000  0.54230000  1.0
  H  H2  1  0.14330000  0.64330000  0.54230000  1.0
  H  H3  1  0.35670000  0.14330000  0.45770000  1.0
  H  H4  1  0.24050000  0.25950000  0.78210000  1.0
  H  H5  1  0.74050000  0.24050000  0.21790000  1.0
  H  H6  1  0.25950000  0.75950000  0.21790000  1.0
  H  H7  1  0.75950000  0.74050000  0.78210000  1.0
  C  C8  1  0.00000000  0.50000000  0.17180000  1.0
  C  C9  1  0.50000000  0.00000000  0.82820000  1.0
  N  N10  1  0.85400000  0.35400000  0.32290000  1.0
  N  N11  1  0.35400000  0.14600000  0.67710000  1.0
  N  N12  1  0.14600000  0.64600000  0.32290000  1.0
  N  N13  1  0.64600000  0.85400000  0.67710000  1.0
  O  O14  1  0.50000000  0.00000000  0.10350000  1.0
  O  O15  1  0.00000000  0.50000000  0.89650000  1.0
