# generated using pymatgen
data_WS2
_symmetry_space_group_name_H-M   'P 1'
_cell_length_a   3.15800000
_cell_length_b   3.15800000
_cell_length_c   6.42736331
_cell_angle_alpha   75.77866302
_cell_angle_beta   75.77866302
_cell_angle_gamma   60.00000000
_symmetry_Int_Tables_number   1
_chemical_formula_structural   WS2
_chemical_formula_sum   'W1 S2'
_cell_volume   53.23172495
_cell_formula_units_Z   1
loop_
 _symmetry_equiv_pos_site_id
 _symmetry_equiv_pos_as_xyz
  1  'x, y, z'
loop_
 _atom_site_type_symbol
 _atom_site_label
 _atom_site_symmetry_multiplicity
 _atom_site_fract_x
 _atom_site_fract_y
 _atom_site_fract_z
 _atom_site_occupancy
  W  W2  1  0.00000000  0.00000000  0.00000000  1.0
  S  S0  1  0.41900000  0.41900000  0.74300000  1.0
  S  S1  1  0.24970000  0.24970000  0.25090000  1.0
