# generated using pymatgen
data_AlReSi
_symmetry_space_group_name_H-M   'P 1'
_cell_length_a   3.19211500
_cell_length_b   3.19211500
_cell_length_c   4.61493814
_cell_angle_alpha   110.23344207
_cell_angle_beta   110.23344207
_cell_angle_gamma   90.00000000
_symmetry_Int_Tables_number   1
_chemical_formula_structural   AlReSi
_chemical_formula_sum   'Al1 Re1 Si1'
_cell_volume   41.01595519
_cell_formula_units_Z   1
loop_
 _symmetry_equiv_pos_site_id
 _symmetry_equiv_pos_as_xyz
  1  'x, y, z'
loop_
 _atom_site_type_symbol
 _atom_site_label
 _atom_site_symmetry_multiplicity
 _atom_site_fract_x
 _atom_site_fract_y
 _atom_site_fract_z
 _atom_site_occupancy
  Al  Al0  1  0.66700000  0.66700000  0.33400000  1.0
  Re  Re1  1  0.00000000  0.00000000  0.00000000  1.0
  Si  Si2  1  0.33300000  0.33300000  0.66600000  1.0
