# generated using pymatgen
data_LiSiNO
_symmetry_space_group_name_H-M   'P 1'
_cell_length_a   5.20000000
_cell_length_b   6.39500000
_cell_length_c   4.72800000
_cell_angle_alpha   90.00000000
_cell_angle_beta   90.00000000
_cell_angle_gamma   90.00000000
_symmetry_Int_Tables_number   1
_chemical_formula_structural   LiSiNO
_chemical_formula_sum   'Li4 Si4 N4 O4'
_cell_volume   157.22491200
_cell_formula_units_Z   4
loop_
 _symmetry_equiv_pos_site_id
 _symmetry_equiv_pos_as_xyz
  1  'x, y, z'
loop_
 _atom_site_type_symbol
 _atom_site_label
 _atom_site_symmetry_multiplicity
 _atom_site_fract_x
 _atom_site_fract_y
 _atom_site_fract_z
 _atom_site_occupancy
  Li  Li0  1  0.59600000  0.36900000  0.03800000  1.0
  Li  Li1  1  0.40400000  0.63100000  0.53800000  1.0
  Li  Li2  1  0.90400000  0.36900000  0.53800000  1.0
  Li  Li3  1  0.09600000  0.63100000  0.03800000  1.0
  Si  Si4  1  0.41200000  0.12500000  0.50000000  1.0
  Si  Si5  1  0.91200000  0.87500000  0.50000000  1.0
  Si  Si6  1  0.08800000  0.12500000  0.00000000  1.0
  Si  Si7  1  0.58800000  0.87500000  0.00000000  1.0
  N  N8  1  0.39900000  0.08200000  0.13800000  1.0
  N  N9  1  0.60100000  0.91800000  0.63800000  1.0
  N  N10  1  0.10100000  0.08200000  0.63800000  1.0
  N  N11  1  0.89900000  0.91800000  0.13800000  1.0
  O  O12  1  0.03400000  0.66300000  0.57400000  1.0
  O  O13  1  0.46600000  0.66300000  0.07400000  1.0
  O  O14  1  0.96600000  0.33700000  0.07400000  1.0
  O  O15  1  0.53400000  0.33700000  0.57400000  1.0
