# generated using pymatgen
data_NaHS
_symmetry_space_group_name_H-M   'P 1'
_cell_length_a   3.98599982
_cell_length_b   3.98599982
_cell_length_c   3.98599982
_cell_angle_alpha   68.10000428
_cell_angle_beta   68.10000428
_cell_angle_gamma   68.10000428
_symmetry_Int_Tables_number   1
_chemical_formula_structural   NaHS
_chemical_formula_sum   'Na1 H1 S1'
_cell_volume   52.46950161
_cell_formula_units_Z   1
loop_
 _symmetry_equiv_pos_site_id
 _symmetry_equiv_pos_as_xyz
  1  'x, y, z'
loop_
 _atom_site_type_symbol
 _atom_site_label
 _atom_site_symmetry_multiplicity
 _atom_site_fract_x
 _atom_site_fract_y
 _atom_site_fract_z
 _atom_site_occupancy
  Na  Na1  1  0.50000000  0.50000000  0.50000000  1.0
  H  H0  1  0.13600000  0.13600000  0.13600000  1.0
  S  S2  1  0.00000000  0.00000000  0.00000000  1.0
