# generated using pymatgen
data_HF
_symmetry_space_group_name_H-M   'P 1'
_cell_length_a   2.69739226
_cell_length_b   2.69739226
_cell_length_c   5.22000000
_cell_angle_alpha   90.00000000
_cell_angle_beta   90.00000000
_cell_angle_gamma   104.30592193
_symmetry_Int_Tables_number   1
_chemical_formula_structural   HF
_chemical_formula_sum   'H2 F2'
_cell_volume   36.80256602
_cell_formula_units_Z   2
loop_
 _symmetry_equiv_pos_site_id
 _symmetry_equiv_pos_as_xyz
  1  'x, y, z'
loop_
 _atom_site_type_symbol
 _atom_site_label
 _atom_site_symmetry_multiplicity
 _atom_site_fract_x
 _atom_site_fract_y
 _atom_site_fract_z
 _atom_site_occupancy
  H  H2  1  0.44400000  0.55600000  0.46400000  1.0
  H  H3  1  0.55600000  0.44400000  0.96400000  1.0
  F  F0  1  0.25000000  0.75000000  0.37400000  1.0
  F  F1  1  0.75000000  0.25000000  0.87400000  1.0
