# generated using pymatgen
data_Li3VO4
_symmetry_space_group_name_H-M   'P 1'
_cell_length_a   6.38289285
_cell_length_b   5.50061134
_cell_length_c   5.03147253
_cell_angle_alpha   90.00000000
_cell_angle_beta   90.00000000
_cell_angle_gamma   90.00000000
_symmetry_Int_Tables_number   1
_chemical_formula_structural   Li3VO4
_chemical_formula_sum   'Li6 V2 O8'
_cell_volume   176.65405860
_cell_formula_units_Z   2
loop_
 _symmetry_equiv_pos_site_id
 _symmetry_equiv_pos_as_xyz
  1  'x, y, z'
loop_
 _atom_site_type_symbol
 _atom_site_label
 _atom_site_symmetry_multiplicity
 _atom_site_fract_x
 _atom_site_fract_y
 _atom_site_fract_z
 _atom_site_occupancy
  Li  Li0  1  0.24757082  0.66856761  0.00880752  1.0
  Li  Li1  1  0.25242918  0.33143239  0.50880752  1.0
  Li  Li2  1  0.74757082  0.33143239  0.50880752  1.0
  Li  Li3  1  0.75242918  0.66856761  0.00880752  1.0
  Li  Li4  1  0.50000000  0.16510043  0.00928680  1.0
  Li  Li5  1  0.00000000  0.83489957  0.50928680  1.0
  V  V6  1  0.00000000  0.17049966  0.00117173  1.0
  V  V7  1  0.50000000  0.82950034  0.50117173  1.0
  O  O8  1  0.22401659  0.31966241  0.11074439  1.0
  O  O9  1  0.00000000  0.17355010  0.65716465  1.0
  O  O10  1  0.77598341  0.31966241  0.11074439  1.0
  O  O11  1  0.27598341  0.68033759  0.61074439  1.0
  O  O12  1  0.72401659  0.68033759  0.61074439  1.0
  O  O13  1  0.50000000  0.12929878  0.60907300  1.0
  O  O14  1  0.00000000  0.87070122  0.10907300  1.0
  O  O15  1  0.50000000  0.82644990  0.15716465  1.0
