# generated using pymatgen
data_KNO2
_symmetry_space_group_name_H-M   'P 1'
_cell_length_a   6.02628481
_cell_length_b   6.02628481
_cell_length_c   6.05980207
_cell_angle_alpha   69.70676115
_cell_angle_beta   69.70676115
_cell_angle_gamma   68.63696055
_symmetry_Int_Tables_number   1
_chemical_formula_structural   KNO2
_chemical_formula_sum   'K1 N1 O2'
_cell_volume   186.00190563
_cell_formula_units_Z   1
loop_
 _symmetry_equiv_pos_site_id
 _symmetry_equiv_pos_as_xyz
  1  'x, y, z'
loop_
 _atom_site_type_symbol
 _atom_site_label
 _atom_site_symmetry_multiplicity
 _atom_site_fract_x
 _atom_site_fract_y
 _atom_site_fract_z
 _atom_site_occupancy
  K  K0  1  0.00000000  0.00000000  0.00000000  1.0
  N  N1  1  0.48600000  0.48600000  0.50000000  1.0
  O  O2  1  0.61100000  0.22300000  0.55600000  1.0
  O  O3  1  0.22300000  0.61100000  0.55600000  1.0
