# generated using pymatgen
data_AsF3
_symmetry_space_group_name_H-M   'P 1'
_cell_length_a   7.01800000
_cell_length_b   5.20500000
_cell_length_c   7.31500000
_cell_angle_alpha   90.00000000
_cell_angle_beta   90.00000000
_cell_angle_gamma   90.00000000
_symmetry_Int_Tables_number   1
_chemical_formula_structural   AsF3
_chemical_formula_sum   'As4 F12'
_cell_volume   267.20736735
_cell_formula_units_Z   4
loop_
 _symmetry_equiv_pos_site_id
 _symmetry_equiv_pos_as_xyz
  1  'x, y, z'
loop_
 _atom_site_type_symbol
 _atom_site_label
 _atom_site_symmetry_multiplicity
 _atom_site_fract_x
 _atom_site_fract_y
 _atom_site_fract_z
 _atom_site_occupancy
  As  As0  1  0.21380000  0.46620000  0.75000000  1.0
  As  As1  1  0.78620000  0.53380000  0.25000000  1.0
  As  As2  1  0.71380000  0.03380000  0.75000000  1.0
  As  As3  1  0.28620000  0.96620000  0.25000000  1.0
  F  F4  1  0.32080000  0.20440000  0.64930000  1.0
  F  F5  1  0.67920000  0.79560000  0.14930000  1.0
  F  F6  1  0.82080000  0.29560000  0.64930000  1.0
  F  F7  1  0.17920000  0.70440000  0.14930000  1.0
  F  F8  1  0.07360000  0.00500000  0.30650000  1.0
  F  F9  1  0.92640000  0.99500000  0.80650000  1.0
  F  F10  1  0.57360000  0.49500000  0.30650000  1.0
  F  F11  1  0.42640000  0.50500000  0.80650000  1.0
  F  F12  1  0.30770000  0.12600000  0.04900000  1.0
  F  F13  1  0.69230000  0.87400000  0.54900000  1.0
  F  F14  1  0.80770000  0.37400000  0.04900000  1.0
  F  F15  1  0.19230000  0.62600000  0.54900000  1.0
