# generated using pymatgen
data_BaO
_symmetry_space_group_name_H-M   'P 1'
_cell_length_a   4.14868636
_cell_length_b   4.14868636
_cell_length_c   6.31865600
_cell_angle_alpha   90.00000000
_cell_angle_beta   90.00000000
_cell_angle_gamma   119.94881471
_symmetry_Int_Tables_number   1
_chemical_formula_structural   BaO
_chemical_formula_sum   'Ba2 O2'
_cell_volume   94.23241446
_cell_formula_units_Z   2
loop_
 _symmetry_equiv_pos_site_id
 _symmetry_equiv_pos_as_xyz
  1  'x, y, z'
loop_
 _atom_site_type_symbol
 _atom_site_label
 _atom_site_symmetry_multiplicity
 _atom_site_fract_x
 _atom_site_fract_y
 _atom_site_fract_z
 _atom_site_occupancy
  Ba  Ba0  1  0.16691600  0.83308400  0.99092400  1.0
  Ba  Ba1  1  0.83308400  0.16691600  0.49092400  1.0
  O  O2  1  0.16669150  0.83330850  0.38407600  1.0
  O  O3  1  0.83330850  0.16669150  0.88407600  1.0
