# generated using pymatgen
data_Li3AsO4
_symmetry_space_group_name_H-M   'P 1'
_cell_length_a   6.28560000
_cell_length_b   5.39020000
_cell_length_c   4.96160000
_cell_angle_alpha   90.00000000
_cell_angle_beta   90.00000000
_cell_angle_gamma   90.00000000
_symmetry_Int_Tables_number   1
_chemical_formula_structural   Li3AsO4
_chemical_formula_sum   'Li6 As2 O8'
_cell_volume   168.10218898
_cell_formula_units_Z   2
loop_
 _symmetry_equiv_pos_site_id
 _symmetry_equiv_pos_as_xyz
  1  'x, y, z'
loop_
 _atom_site_type_symbol
 _atom_site_label
 _atom_site_symmetry_multiplicity
 _atom_site_fract_x
 _atom_site_fract_y
 _atom_site_fract_z
 _atom_site_occupancy
  Li  Li0  1  0.50000000  0.16420000  0.01700000  1.0
  Li  Li1  1  0.00000000  0.83580000  0.51700000  1.0
  Li  Li2  1  0.25010000  0.67290000  0.00410000  1.0
  Li  Li3  1  0.24990000  0.32710000  0.50410000  1.0
  Li  Li4  1  0.75010000  0.32710000  0.50410000  1.0
  Li  Li5  1  0.74990000  0.67290000  0.00410000  1.0
  As  As6  1  0.50000000  0.82980000  0.50000000  1.0
  As  As7  1  0.00000000  0.17020000  0.00000000  1.0
  O  O8  1  0.00000000  0.17580000  0.65230000  1.0
  O  O9  1  0.50000000  0.82420000  0.15230000  1.0
  O  O10  1  0.21940000  0.31920000  0.10620000  1.0
  O  O11  1  0.28060000  0.68080000  0.60620000  1.0
  O  O12  1  0.71940000  0.68080000  0.60620000  1.0
  O  O13  1  0.78060000  0.31920000  0.10620000  1.0
  O  O14  1  0.00000000  0.87540000  0.10330000  1.0
  O  O15  1  0.50000000  0.12460000  0.60330000  1.0
