# generated using pymatgen
data_GaSe
_symmetry_space_group_name_H-M   'P 1'
_cell_length_a   3.74700000
_cell_length_b   3.74700000
_cell_length_c   8.25838380
_cell_angle_alpha   76.88770126
_cell_angle_beta   76.88770126
_cell_angle_gamma   60.00000000
_symmetry_Int_Tables_number   1
_chemical_formula_structural   GaSe
_chemical_formula_sum   'Ga2 Se2'
_cell_volume   96.90726556
_cell_formula_units_Z   2
loop_
 _symmetry_equiv_pos_site_id
 _symmetry_equiv_pos_as_xyz
  1  'x, y, z'
loop_
 _atom_site_type_symbol
 _atom_site_label
 _atom_site_symmetry_multiplicity
 _atom_site_fract_x
 _atom_site_fract_y
 _atom_site_fract_z
 _atom_site_occupancy
  Ga  Ga0  1  0.05000000  0.05000000  0.85000000  1.0
  Ga  Ga1  1  0.95000000  0.95000000  0.15000000  1.0
  Se  Se2  1  0.76700000  0.76700000  0.69900000  1.0
  Se  Se3  1  0.56700000  0.56700000  0.29900000  1.0
