# generated using pymatgen
data_Tl3AsS3
_symmetry_space_group_name_H-M   'P 1'
_cell_length_a   5.99670000
_cell_length_b   5.99670000
_cell_length_c   5.99670000
_cell_angle_alpha   105.86999997
_cell_angle_beta   105.86999997
_cell_angle_gamma   105.86999997
_symmetry_Int_Tables_number   1
_chemical_formula_structural   Tl3AsS3
_chemical_formula_sum   'Tl3 As1 S3'
_cell_volume   184.84701017
_cell_formula_units_Z   1
loop_
 _symmetry_equiv_pos_site_id
 _symmetry_equiv_pos_as_xyz
  1  'x, y, z'
loop_
 _atom_site_type_symbol
 _atom_site_label
 _atom_site_symmetry_multiplicity
 _atom_site_fract_x
 _atom_site_fract_y
 _atom_site_fract_z
 _atom_site_occupancy
  Tl  Tl4  1  0.60880000  0.99570000  0.99570000  1.0
  Tl  Tl5  1  0.99570000  0.99570000  0.60880000  1.0
  Tl  Tl6  1  0.99570000  0.60880000  0.99570000  1.0
  As  As0  1  0.44580000  0.44580000  0.44580000  1.0
  S  S1  1  0.06700000  0.43100000  0.43100000  1.0
  S  S2  1  0.43100000  0.43100000  0.06700000  1.0
  S  S3  1  0.43100000  0.06700000  0.43100000  1.0
