# generated using pymatgen
data_Li3PO4
_symmetry_space_group_name_H-M   'P 1'
_cell_length_a   6.11500000
_cell_length_b   5.23940000
_cell_length_c   4.85540000
_cell_angle_alpha   90.00000000
_cell_angle_beta   90.00000000
_cell_angle_gamma   90.00000000
_symmetry_Int_Tables_number   1
_chemical_formula_structural   Li3PO4
_chemical_formula_sum   'Li6 P2 O8'
_cell_volume   155.56182558
_cell_formula_units_Z   2
loop_
 _symmetry_equiv_pos_site_id
 _symmetry_equiv_pos_as_xyz
  1  'x, y, z'
loop_
 _atom_site_type_symbol
 _atom_site_label
 _atom_site_symmetry_multiplicity
 _atom_site_fract_x
 _atom_site_fract_y
 _atom_site_fract_z
 _atom_site_occupancy
  Li  Li0  1  0.00000000  0.84280000  0.51070000  1.0
  Li  Li1  1  0.50000000  0.15720000  0.01070000  1.0
  Li  Li2  1  0.25190000  0.32770000  0.51400000  1.0
  Li  Li3  1  0.24810000  0.67230000  0.01400000  1.0
  Li  Li4  1  0.75190000  0.67230000  0.01400000  1.0
  Li  Li5  1  0.74810000  0.32770000  0.51400000  1.0
  P  P6  1  0.50000000  0.82430000  0.50000000  1.0
  P  P7  1  0.00000000  0.17570000  0.00000000  1.0
  O  O8  1  0.79223000  0.31324000  0.10390000  1.0
  O  O9  1  0.50000000  0.10520000  0.59960000  1.0
  O  O10  1  0.50000000  0.81860000  0.18280000  1.0
  O  O11  1  0.00000000  0.18140000  0.68280000  1.0
  O  O12  1  0.29223000  0.68676000  0.60390000  1.0
  O  O13  1  0.20777000  0.31324000  0.10390000  1.0
  O  O14  1  0.00000000  0.89480000  0.09960000  1.0
  O  O15  1  0.70777000  0.68676000  0.60390000  1.0
