# generated using pymatgen
data_NaNbO3
_symmetry_space_group_name_H-M   'P 1'
_cell_length_a   5.56469960
_cell_length_b   5.56469960
_cell_length_c   5.56469960
_cell_angle_alpha   59.11000001
_cell_angle_beta   59.11000001
_cell_angle_gamma   59.11000001
_symmetry_Int_Tables_number   1
_chemical_formula_structural   NaNbO3
_chemical_formula_sum   'Na2 Nb2 O6'
_cell_volume   119.37365810
_cell_formula_units_Z   2
loop_
 _symmetry_equiv_pos_site_id
 _symmetry_equiv_pos_as_xyz
  1  'x, y, z'
loop_
 _atom_site_type_symbol
 _atom_site_label
 _atom_site_symmetry_multiplicity
 _atom_site_fract_x
 _atom_site_fract_y
 _atom_site_fract_z
 _atom_site_occupancy
  Na  Na0  1  0.27200000  0.27200000  0.27200000  1.0
  Na  Na1  1  0.77200000  0.77200000  0.77200000  1.0
  Nb  Nb2  1  0.01650000  0.01650000  0.01650000  1.0
  Nb  Nb3  1  0.51650000  0.51650000  0.51650000  1.0
  O  O4  1  0.80200000  0.26000000  0.67800000  1.0
  O  O5  1  0.67800000  0.80200000  0.26000000  1.0
  O  O6  1  0.26000000  0.67800000  0.80200000  1.0
  O  O7  1  0.30200000  0.17800000  0.76000000  1.0
  O  O8  1  0.17800000  0.76000000  0.30200000  1.0
  O  O9  1  0.76000000  0.30200000  0.17800000  1.0
