# generated using pymatgen
data_LiTaO3
_symmetry_space_group_name_H-M   'P 1'
_cell_length_a   5.46684496
_cell_length_b   5.46684496
_cell_length_c   5.46684496
_cell_angle_alpha   56.16556876
_cell_angle_beta   56.16556876
_cell_angle_gamma   56.16556876
_symmetry_Int_Tables_number   1
_chemical_formula_structural   LiTaO3
_chemical_formula_sum   'Li2 Ta2 O6'
_cell_volume   105.27503269
_cell_formula_units_Z   2
loop_
 _symmetry_equiv_pos_site_id
 _symmetry_equiv_pos_as_xyz
  1  'x, y, z'
loop_
 _atom_site_type_symbol
 _atom_site_label
 _atom_site_symmetry_multiplicity
 _atom_site_fract_x
 _atom_site_fract_y
 _atom_site_fract_z
 _atom_site_occupancy
  Li  Li0  1  0.71970000  0.71970000  0.71970000  1.0
  Li  Li1  1  0.21970000  0.21970000  0.21970000  1.0
  Ta  Ta2  1  0.00000000  0.00000000  0.00000000  1.0
  Ta  Ta3  1  0.50000000  0.50000000  0.50000000  1.0
  O  O4  1  0.38150000  0.77370000  0.13690000  1.0
  O  O5  1  0.27370000  0.88150000  0.63690000  1.0
  O  O6  1  0.88150000  0.63690000  0.27370000  1.0
  O  O7  1  0.63690000  0.27370000  0.88150000  1.0
  O  O8  1  0.13690000  0.38150000  0.77370000  1.0
  O  O9  1  0.77370000  0.13690000  0.38150000  1.0
