# generated using pymatgen
data_Sn3PO4F3
_symmetry_space_group_name_H-M   'P 1'
_cell_length_a   7.02919889
_cell_length_b   7.02919889
_cell_length_c   7.02919889
_cell_angle_alpha   115.20154144
_cell_angle_beta   115.20154144
_cell_angle_gamma   115.20154144
_symmetry_Int_Tables_number   1
_chemical_formula_structural   Sn3PO4F3
_chemical_formula_sum   'Sn3 P1 O4 F3'
_cell_volume   190.75833691
_cell_formula_units_Z   1
loop_
 _symmetry_equiv_pos_site_id
 _symmetry_equiv_pos_as_xyz
  1  'x, y, z'
loop_
 _atom_site_type_symbol
 _atom_site_label
 _atom_site_symmetry_multiplicity
 _atom_site_fract_x
 _atom_site_fract_y
 _atom_site_fract_z
 _atom_site_occupancy
  Sn  Sn0  1  0.63330000  0.27320000  0.62950000  1.0
  Sn  Sn1  1  0.62950000  0.63330000  0.27320000  1.0
  Sn  Sn2  1  0.27320000  0.62950000  0.63330000  1.0
  P  P3  1  0.00000000  0.00000000  0.00000000  1.0
  O  O4  1  0.64800000  0.64800000  0.64800000  1.0
  O  O5  1  0.18300000  0.97800000  0.18100000  1.0
  O  O6  1  0.97800000  0.18100000  0.18300000  1.0
  O  O7  1  0.18100000  0.18300000  0.97800000  1.0
  F  F8  1  0.36300000  0.82400000  0.48800000  1.0
  F  F9  1  0.48800000  0.36300000  0.82400000  1.0
  F  F10  1  0.82400000  0.48800000  0.36300000  1.0
