# generated using pymatgen
data_AgNO3
_symmetry_space_group_name_H-M   'P 1'
_cell_length_a   6.27847428
_cell_length_b   6.27847428
_cell_length_c   6.27847428
_cell_angle_alpha   48.52626759
_cell_angle_beta   48.52626759
_cell_angle_gamma   48.52626759
_symmetry_Int_Tables_number   1
_chemical_formula_structural   AgNO3
_chemical_formula_sum   'Ag2 N2 O6'
_cell_volume   127.43632516
_cell_formula_units_Z   2
loop_
 _symmetry_equiv_pos_site_id
 _symmetry_equiv_pos_as_xyz
  1  'x, y, z'
loop_
 _atom_site_type_symbol
 _atom_site_label
 _atom_site_symmetry_multiplicity
 _atom_site_fract_x
 _atom_site_fract_y
 _atom_site_fract_z
 _atom_site_occupancy
  Ag  Ag0  1  0.00000000  0.00000000  0.00000000  1.0
  Ag  Ag1  1  0.50000000  0.50000000  0.50000000  1.0
  N  N2  1  0.22450000  0.22450000  0.22450000  1.0
  N  N3  1  0.72450000  0.72450000  0.72450000  1.0
  O  O4  1  0.99560000  0.64500000  0.52180000  1.0
  O  O5  1  0.14500000  0.49560000  0.02180000  1.0
  O  O6  1  0.64500000  0.52180000  0.99560000  1.0
  O  O7  1  0.52180000  0.99560000  0.64500000  1.0
  O  O8  1  0.02180000  0.14500000  0.49560000  1.0
  O  O9  1  0.49560000  0.02180000  0.14500000  1.0
