# generated using pymatgen
data_Ag3SbS3
_symmetry_space_group_name_H-M   'P 1'
_cell_length_a   7.00876582
_cell_length_b   7.00876582
_cell_length_c   7.00876582
_cell_angle_alpha   103.97389260
_cell_angle_beta   103.97389260
_cell_angle_gamma   103.97389260
_symmetry_Int_Tables_number   1
_chemical_formula_structural   Ag3SbS3
_chemical_formula_sum   'Ag6 Sb2 S6'
_cell_volume   307.34529699
_cell_formula_units_Z   2
loop_
 _symmetry_equiv_pos_site_id
 _symmetry_equiv_pos_as_xyz
  1  'x, y, z'
loop_
 _atom_site_type_symbol
 _atom_site_label
 _atom_site_symmetry_multiplicity
 _atom_site_fract_x
 _atom_site_fract_y
 _atom_site_fract_z
 _atom_site_occupancy
  Ag  Ag0  1  0.22820000  0.03830000  0.58760000  1.0
  Ag  Ag1  1  0.58760000  0.22820000  0.03830000  1.0
  Ag  Ag2  1  0.53830000  0.72820000  0.08760000  1.0
  Ag  Ag3  1  0.72820000  0.08760000  0.53830000  1.0
  Ag  Ag4  1  0.03830000  0.58760000  0.22820000  1.0
  Ag  Ag5  1  0.08760000  0.53830000  0.72820000  1.0
  Sb  Sb6  1  0.50000000  0.50000000  0.50000000  1.0
  Sb  Sb7  1  0.00000000  0.00000000  0.00000000  1.0
  S  S8  1  0.24100000  0.26200000  0.91700000  1.0
  S  S9  1  0.26200000  0.91700000  0.24100000  1.0
  S  S10  1  0.41700000  0.76200000  0.74100000  1.0
  S  S11  1  0.76200000  0.74100000  0.41700000  1.0
  S  S12  1  0.91700000  0.24100000  0.26200000  1.0
  S  S13  1  0.74100000  0.41700000  0.76200000  1.0
