# generated using pymatgen
data_K2Si3SnO9
_symmetry_space_group_name_H-M   'P 1'
_cell_length_a   7.66500724
_cell_length_b   7.66500724
_cell_length_c   7.66500724
_cell_angle_alpha   83.00922241
_cell_angle_beta   83.00922241
_cell_angle_gamma   83.00922241
_symmetry_Int_Tables_number   1
_chemical_formula_structural   K2Si3SnO9
_chemical_formula_sum   'K4 Si6 Sn2 O18'
_cell_volume   441.04675536
_cell_formula_units_Z   2
loop_
 _symmetry_equiv_pos_site_id
 _symmetry_equiv_pos_as_xyz
  1  'x, y, z'
loop_
 _atom_site_type_symbol
 _atom_site_label
 _atom_site_symmetry_multiplicity
 _atom_site_fract_x
 _atom_site_fract_y
 _atom_site_fract_z
 _atom_site_occupancy
  K  K0  1  0.00860000  0.23110000  0.78110000  1.0
  K  K1  1  0.52356700  0.52356700  0.52356700  1.0
  K  K2  1  0.78110000  0.00860000  0.23110000  1.0
  K  K3  1  0.23110000  0.78110000  0.00860000  1.0
  Si  Si4  1  0.45270000  0.98110000  0.55630000  1.0
  Si  Si5  1  0.55630000  0.45270000  0.98110000  1.0
  Si  Si6  1  0.48460000  0.10950000  0.89590000  1.0
  Si  Si7  1  0.10950000  0.89590000  0.48460000  1.0
  Si  Si8  1  0.98110000  0.55630000  0.45270000  1.0
  Si  Si9  1  0.89590000  0.48460000  0.10950000  1.0
  Sn  Sn10  1  0.25503300  0.25503300  0.25503300  1.0
  Sn  Sn11  1  0.77380000  0.77380000  0.77380000  1.0
  O  O12  1  0.89760000  0.67260000  0.99060000  1.0
  O  O13  1  0.55910000  0.64010000  0.85910000  1.0
  O  O14  1  0.08210000  0.36210000  0.07610000  1.0
  O  O15  1  0.14200000  0.40200000  0.46000000  1.0
  O  O16  1  0.52260000  0.31460000  0.84360000  1.0
  O  O17  1  0.85910000  0.55910000  0.64010000  1.0
  O  O18  1  0.99060000  0.89760000  0.67260000  1.0
  O  O19  1  0.07610000  0.08210000  0.36210000  1.0
  O  O20  1  0.36210000  0.07610000  0.08210000  1.0
  O  O21  1  0.67260000  0.99060000  0.89760000  1.0
  O  O22  1  0.75440000  0.38240000  0.03640000  1.0
  O  O23  1  0.40200000  0.46000000  0.14200000  1.0
  O  O24  1  0.64010000  0.85910000  0.55910000  1.0
  O  O25  1  0.03640000  0.75440000  0.38240000  1.0
  O  O26  1  0.46000000  0.14200000  0.40200000  1.0
  O  O27  1  0.31460000  0.84360000  0.52260000  1.0
  O  O28  1  0.84360000  0.52260000  0.31460000  1.0
  O  O29  1  0.38240000  0.03640000  0.75440000  1.0
