# generated using pymatgen
data_MgH12SeO9
_symmetry_space_group_name_H-M   'P 1'
_cell_length_a   5.96499990
_cell_length_b   5.96499990
_cell_length_c   5.96499990
_cell_angle_alpha   97.28000121
_cell_angle_beta   97.28000121
_cell_angle_gamma   97.28000121
_symmetry_Int_Tables_number   1
_chemical_formula_structural   MgH12SeO9
_chemical_formula_sum   'Mg1 H12 Se1 O9'
_cell_volume   206.62363666
_cell_formula_units_Z   1
loop_
 _symmetry_equiv_pos_site_id
 _symmetry_equiv_pos_as_xyz
  1  'x, y, z'
loop_
 _atom_site_type_symbol
 _atom_site_label
 _atom_site_symmetry_multiplicity
 _atom_site_fract_x
 _atom_site_fract_y
 _atom_site_fract_z
 _atom_site_occupancy
  Mg  Mg0  1  0.00000000  0.00000000  0.00000000  1.0
  H  H1  1  0.41500000  0.04500000  0.93200000  1.0
  H  H2  1  0.93200000  0.41500000  0.04500000  1.0
  H  H3  1  0.04500000  0.93200000  0.41500000  1.0
  H  H4  1  0.35600000  0.22800000  0.86500000  1.0
  H  H5  1  0.86500000  0.35600000  0.22800000  1.0
  H  H6  1  0.22800000  0.86500000  0.35600000  1.0
  H  H7  1  0.57900000  0.73000000  0.93400000  1.0
  H  H8  1  0.93400000  0.57900000  0.73000000  1.0
  H  H9  1  0.73000000  0.93400000  0.57900000  1.0
  H  H10  1  0.63800000  0.82500000  0.18400000  1.0
  H  H11  1  0.18400000  0.63800000  0.82500000  1.0
  H  H12  1  0.82500000  0.18400000  0.63800000  1.0
  Se  Se13  1  0.47820000  0.47820000  0.47820000  1.0
  O  O14  1  0.42720000  0.51070000  0.75310000  1.0
  O  O15  1  0.75310000  0.42720000  0.51070000  1.0
  O  O16  1  0.51070000  0.75310000  0.42720000  1.0
  O  O17  1  0.31950000  0.12750000  0.93590000  1.0
  O  O18  1  0.93590000  0.31950000  0.12750000  1.0
  O  O19  1  0.12750000  0.93590000  0.31950000  1.0
  O  O20  1  0.67010000  0.85760000  0.04400000  1.0
  O  O21  1  0.04400000  0.67010000  0.85760000  1.0
  O  O22  1  0.85760000  0.04400000  0.67010000  1.0
