# generated using pymatgen
data_Na3PSO3
_symmetry_space_group_name_H-M   'P 1'
_cell_length_a   6.25183776
_cell_length_b   6.25183776
_cell_length_c   6.25183776
_cell_angle_alpha   84.96071164
_cell_angle_beta   84.96071164
_cell_angle_gamma   84.96071164
_symmetry_Int_Tables_number   1
_chemical_formula_structural   Na3PSO3
_chemical_formula_sum   'Na6 P2 S2 O6'
_cell_volume   241.67894250
_cell_formula_units_Z   2
loop_
 _symmetry_equiv_pos_site_id
 _symmetry_equiv_pos_as_xyz
  1  'x, y, z'
loop_
 _atom_site_type_symbol
 _atom_site_label
 _atom_site_symmetry_multiplicity
 _atom_site_fract_x
 _atom_site_fract_y
 _atom_site_fract_z
 _atom_site_occupancy
  Na  Na0  1  0.50460000  0.88140000  0.19010000  1.0
  Na  Na1  1  0.19010000  0.50460000  0.88140000  1.0
  Na  Na2  1  0.88140000  0.19010000  0.50460000  1.0
  Na  Na3  1  0.38140000  0.00460000  0.69010000  1.0
  Na  Na4  1  0.69010000  0.38140000  0.00460000  1.0
  Na  Na5  1  0.00460000  0.69010000  0.38140000  1.0
  P  P6  1  0.90530000  0.90530000  0.90530000  1.0
  P  P7  1  0.40530000  0.40530000  0.40530000  1.0
  S  S8  1  0.58516700  0.58516700  0.58516700  1.0
  S  S9  1  0.08516700  0.08516700  0.08516700  1.0
  O  O10  1  0.86410000  0.69860000  0.04160000  1.0
  O  O11  1  0.04160000  0.86410000  0.69860000  1.0
  O  O12  1  0.69860000  0.04160000  0.86410000  1.0
  O  O13  1  0.19860000  0.36410000  0.54160000  1.0
  O  O14  1  0.54160000  0.19860000  0.36410000  1.0
  O  O15  1  0.36410000  0.54160000  0.19860000  1.0
