# generated using pymatgen
data_TePb2O5
_symmetry_space_group_name_H-M   'P 1'
_cell_length_a   5.71400015
_cell_length_b   7.14551648
_cell_length_c   7.26713100
_cell_angle_alpha   62.89462829
_cell_angle_beta   66.84997918
_cell_angle_gamma   66.43237939
_symmetry_Int_Tables_number   1
_chemical_formula_structural   TePb2O5
_chemical_formula_sum   'Te2 Pb4 O10'
_cell_volume   233.86174850
_cell_formula_units_Z   2
loop_
 _symmetry_equiv_pos_site_id
 _symmetry_equiv_pos_as_xyz
  1  'x, y, z'
loop_
 _atom_site_type_symbol
 _atom_site_label
 _atom_site_symmetry_multiplicity
 _atom_site_fract_x
 _atom_site_fract_y
 _atom_site_fract_z
 _atom_site_occupancy
  Te  Te0  1  0.05544400  0.21286300  0.69038300  1.0
  Te  Te1  1  0.04386600  0.72210900  0.18682800  1.0
  Pb  Pb2  1  0.38037300  0.54058100  0.68028100  1.0
  Pb  Pb3  1  0.72216400  0.89682200  0.68309300  1.0
  Pb  Pb4  1  0.40151700  0.03427700  0.18470000  1.0
  Pb  Pb5  1  0.70770300  0.39586900  0.17586600  1.0
  O  O6  1  0.27322700  0.70358800  0.32266600  1.0
  O  O7  1  0.03377200  0.40367200  0.80967300  1.0
  O  O8  1  0.79296700  0.74369300  0.05258400  1.0
  O  O9  1  0.69888000  0.20377600  0.81967700  1.0
  O  O10  1  0.74698300  0.89892900  0.31865300  1.0
  O  O11  1  0.40804300  0.24405800  0.54821900  1.0
  O  O12  1  0.30504600  0.50326800  0.04932800  1.0
  O  O13  1  0.13582200  0.01165600  0.55100200  1.0
  O  O14  1  0.16790700  0.97401900  0.95347800  1.0
  O  O15  1  0.90995100  0.46951300  0.44560800  1.0
