# generated using pymatgen
data_BeF2
_symmetry_space_group_name_H-M   'P 1'
_cell_length_a   4.66727339
_cell_length_b   4.66727339
_cell_length_c   5.18279693
_cell_angle_alpha   90.01950158
_cell_angle_beta   89.98049842
_cell_angle_gamma   120.00670884
_symmetry_Int_Tables_number   1
_chemical_formula_structural   BeF2
_chemical_formula_sum   'Be3 F6'
_cell_volume   97.76691445
_cell_formula_units_Z   3
loop_
 _symmetry_equiv_pos_site_id
 _symmetry_equiv_pos_as_xyz
  1  'x, y, z'
loop_
 _atom_site_type_symbol
 _atom_site_label
 _atom_site_symmetry_multiplicity
 _atom_site_fract_x
 _atom_site_fract_y
 _atom_site_fract_z
 _atom_site_occupancy
  Be  Be0  1  0.46616648  0.00031799  0.33329176  1
  Be  Be1  1  0.00031800  0.46616648  0.66670824  1
  Be  Be2  1  0.53391976  0.53391976  0.00000000  1
  F  F3  1  0.41147670  0.27759817  0.22227231  1
  F  F4  1  0.72236642  0.13415345  0.55560552  1
  F  F5  1  0.86588151  0.58811903  0.88902956  1
  F  F6  1  0.13415345  0.72236641  0.44439448  1
  F  F7  1  0.58811903  0.86588151  0.11097044  1
  F  F8  1  0.27759817  0.41147670  0.77772769  1
