# generated using pymatgen
data_TiBi2O5
_symmetry_space_group_name_H-M   'P 1'
_cell_length_a   5.61366003
_cell_length_b   5.69371800
_cell_length_c   8.45292044
_cell_angle_alpha   109.68142319
_cell_angle_beta   90.00129380
_cell_angle_gamma   90.00000000
_symmetry_Int_Tables_number   1
_chemical_formula_structural   TiBi2O5
_chemical_formula_sum   'Ti2 Bi4 O10'
_cell_volume   254.39347684
_cell_formula_units_Z   2
loop_
 _symmetry_equiv_pos_site_id
 _symmetry_equiv_pos_as_xyz
  1  'x, y, z'
loop_
 _atom_site_type_symbol
 _atom_site_label
 _atom_site_symmetry_multiplicity
 _atom_site_fract_x
 _atom_site_fract_y
 _atom_site_fract_z
 _atom_site_occupancy
  Ti  Ti14  1  0.27363300  0.31048600  0.00300600  1.0
  Ti  Ti15  1  0.77363300  0.69252000  0.00300600  1.0
  Bi  Bi0  1  0.22689800  0.96647600  0.34474500  1.0
  Bi  Bi1  1  0.72689800  0.37826900  0.34474500  1.0
  Bi  Bi2  1  0.23015600  0.62478200  0.66218500  1.0
  Bi  Bi3  1  0.73015600  0.03740300  0.66218500  1.0
  O  O4  1  0.34526100  0.24651300  0.19438800  1.0
  O  O5  1  0.84526100  0.94787500  0.19438800  1.0
  O  O6  1  0.50751100  0.23564600  0.50652300  1.0
  O  O7  1  0.00751100  0.27087700  0.50652300  1.0
  O  O8  1  0.00962200  0.76930400  0.50118100  1.0
  O  O9  1  0.50962200  0.73187700  0.50118100  1.0
  O  O10  1  0.34881700  0.05200900  0.81475700  1.0
  O  O11  1  0.84881700  0.76274800  0.81475700  1.0
  O  O12  1  0.45791300  0.58103500  0.00017500  1.0
  O  O13  1  0.95791300  0.41914000  0.00017500  1.0
