# generated using pymatgen
data_NaPH3NO3
_symmetry_space_group_name_H-M   'P 1'
_cell_length_a   5.77300015
_cell_length_b   5.77300015
_cell_length_c   6.03100000
_cell_angle_alpha   90.00000000
_cell_angle_beta   90.00000000
_cell_angle_gamma   120.00000000
_symmetry_Int_Tables_number   1
_chemical_formula_structural   NaPH3NO3
_chemical_formula_sum   'Na2 P2 H6 N2 O6'
_cell_volume   174.06966669
_cell_formula_units_Z   2
loop_
 _symmetry_equiv_pos_site_id
 _symmetry_equiv_pos_as_xyz
  1  'x, y, z'
loop_
 _atom_site_type_symbol
 _atom_site_label
 _atom_site_symmetry_multiplicity
 _atom_site_fract_x
 _atom_site_fract_y
 _atom_site_fract_z
 _atom_site_occupancy
  Na  Na0  1  0.00000000  0.00000000  0.50000000  1.0
  Na  Na1  1  0.00000000  0.00000000  0.00000000  1.0
  P  P2  1  0.66666667  0.33333333  0.81210000  1.0
  P  P3  1  0.33333333  0.66666667  0.31210000  1.0
  H  H4  1  0.83900000  0.48700000  0.15800000  1.0
  H  H5  1  0.64800000  0.16100000  0.15800000  1.0
  H  H6  1  0.51300000  0.35200000  0.15800000  1.0
  H  H7  1  0.16100000  0.51300000  0.65800000  1.0
  H  H8  1  0.35200000  0.83900000  0.65800000  1.0
  H  H9  1  0.48700000  0.64800000  0.65800000  1.0
  N  N10  1  0.66666667  0.33333333  0.10590000  1.0
  N  N11  1  0.33333333  0.66666667  0.60590000  1.0
  O  O12  1  0.37530000  0.15120000  0.75140000  1.0
  O  O13  1  0.77590000  0.62470000  0.75140000  1.0
  O  O14  1  0.84880000  0.22410000  0.75140000  1.0
  O  O15  1  0.62470000  0.84880000  0.25140000  1.0
  O  O16  1  0.22410000  0.37530000  0.25140000  1.0
  O  O17  1  0.15120000  0.77590000  0.25140000  1.0
