# generated using pymatgen
data_Mg(IO3)2
_symmetry_space_group_name_H-M   'P 1'
_cell_length_a   5.47770000
_cell_length_b   5.47770000
_cell_length_c   9.48765500
_cell_angle_alpha   90.00000000
_cell_angle_beta   90.00000000
_cell_angle_gamma   90.00000000
_symmetry_Int_Tables_number   1
_chemical_formula_structural   Mg(IO3)2
_chemical_formula_sum   'Mg2 I4 O12'
_cell_volume   284.67896009
_cell_formula_units_Z   2
loop_
 _symmetry_equiv_pos_site_id
 _symmetry_equiv_pos_as_xyz
  1  'x, y, z'
loop_
 _atom_site_type_symbol
 _atom_site_label
 _atom_site_symmetry_multiplicity
 _atom_site_fract_x
 _atom_site_fract_y
 _atom_site_fract_z
 _atom_site_occupancy
  Mg  Mg0  1  0.25000000  0.01900000  0.25000000  1.0
  Mg  Mg1  1  0.75000000  0.51900000  0.75000000  1.0
  I  I2  1  0.25000000  0.00000000  0.91666700  1.0
  I  I3  1  0.75000000  0.50000000  0.08333300  1.0
  I  I4  1  0.75000000  0.00000000  0.41666700  1.0
  I  I5  1  0.25000000  0.50000000  0.58333300  1.0
  O  O6  1  0.45400000  0.83800000  0.79800000  1.0
  O  O7  1  0.32600000  0.83800000  0.07800000  1.0
  O  O8  1  0.03000000  0.33800000  0.12600000  1.0
  O  O9  1  0.97000000  0.83800000  0.87400000  1.0
  O  O10  1  0.95400000  0.83800000  0.29800000  1.0
  O  O11  1  0.82600000  0.83800000  0.57800000  1.0
  O  O12  1  0.67400000  0.33800000  0.92200000  1.0
  O  O13  1  0.54600000  0.33800000  0.20200000  1.0
  O  O14  1  0.53000000  0.33800000  0.62600000  1.0
  O  O15  1  0.47000000  0.83800000  0.37400000  1.0
  O  O16  1  0.17400000  0.33800000  0.42200000  1.0
  O  O17  1  0.04600000  0.33800000  0.70200000  1.0
