# generated using pymatgen
data_Li2SiF6
_symmetry_space_group_name_H-M   'P 1'
_cell_length_a   8.12897973
_cell_length_b   8.12897973
_cell_length_c   4.47298446
_cell_angle_alpha   90.00288518
_cell_angle_beta   89.99711482
_cell_angle_gamma   120.00280901
_symmetry_Int_Tables_number   1
_chemical_formula_structural   Li2SiF6
_chemical_formula_sum   'Li6 Si3 F18'
_cell_volume   255.96925744
_cell_formula_units_Z   3
loop_
 _symmetry_equiv_pos_site_id
 _symmetry_equiv_pos_as_xyz
  1  'x, y, z'
loop_
 _atom_site_type_symbol
 _atom_site_label
 _atom_site_symmetry_multiplicity
 _atom_site_fract_x
 _atom_site_fract_y
 _atom_site_fract_z
 _atom_site_occupancy
  Li  Li0  1  0.29733677  -0.00005094  0.50003429  1
  Li  Li1  1  0.70265617  0.70265617  0.50000000  1
  Li  Li2  1  -0.00005094  0.29733677  0.49996571  1
  Li  Li3  1  0.63245149  0.00006213  -0.00000756  1
  Li  Li4  1  0.36759077  0.36759077  0.00000000  1
  Li  Li5  1  0.00006214  0.63245149  0.00000756  1
  Si  Si6  1  0.00000402  0.00000402  -0.00000000  1
  Si  Si7  1  0.66666079  0.33333024  0.51185857  1
  Si  Si8  1  0.33333024  0.66666079  0.48814144  1
  F  F9  1  0.90526615  0.80187363  0.78502114  1
  F  F10  1  0.89660567  0.09473569  0.78505178  1
  F  F11  1  0.19813563  0.10340362  0.78502680  1
  F  F12  1  0.09473569  0.89660567  0.21494822  1
  F  F13  1  0.80187363  0.90526615  0.21497885  1
  F  F14  1  0.10340362  0.19813563  0.21497320  1
  F  F15  1  0.58210118  0.44624661  0.72820909  1
  F  F16  1  0.86413213  0.41789700  0.72820544  1
  F  F17  1  0.55374479  0.13585984  0.72821380  1
  F  F18  1  0.41789700  0.86413213  0.27179456  1
  F  F19  1  0.44624661  0.58210118  0.27179091  1
  F  F20  1  0.13585984  0.55374479  0.27178621  1
  F  F21  1  0.22492456  0.75649153  0.70409594  1
  F  F22  1  0.53157012  0.77507247  0.70408697  1
  F  F23  1  0.24348210  0.46841682  0.70407211  1
  F  F24  1  0.77507247  0.53157012  0.29591303  1
  F  F25  1  0.75649153  0.22492456  0.29590406  1
  F  F26  1  0.46841682  0.24348210  0.29592789  1
