# generated using pymatgen
data_BeF2
_symmetry_space_group_name_H-M   'P 1'
_cell_length_a   7.17606909
_cell_length_b   7.17606909
_cell_length_c   7.17606909
_cell_angle_alpha   109.47122063
_cell_angle_beta   109.47122063
_cell_angle_gamma   109.47122063
_symmetry_Int_Tables_number   1
_chemical_formula_structural   BeF2
_chemical_formula_sum   'Be6 F12'
_cell_volume   284.47096310
_cell_formula_units_Z   6
loop_
 _symmetry_equiv_pos_site_id
 _symmetry_equiv_pos_as_xyz
  1  'x, y, z'
loop_
 _atom_site_type_symbol
 _atom_site_label
 _atom_site_symmetry_multiplicity
 _atom_site_fract_x
 _atom_site_fract_y
 _atom_site_fract_z
 _atom_site_occupancy
  Be  Be0  1  0.75000000  0.50000000  0.25000000  1
  Be  Be1  1  0.50000000  0.75000000  0.25000000  1
  Be  Be2  1  0.75000000  0.25000000  0.50000000  1
  Be  Be3  1  0.50000000  0.25000000  0.75000000  1
  Be  Be4  1  0.25000000  0.50000000  0.75000000  1
  Be  Be5  1  0.25000000  0.75000000  0.50000000  1
  F  F6  1  0.69769376  0.41200140  0.00000000  1
  F  F7  1  0.30230624  0.30230624  0.71430764  1
  F  F8  1  0.41200140  0.69769376  -0.00000000  1
  F  F9  1  0.00000000  0.41200140  0.69769376  1
  F  F10  1  0.28569236  0.58799860  0.58799860  1
  F  F11  1  -0.00000000  0.69769376  0.41200140  1
  F  F12  1  0.58799860  0.28569236  0.58799860  1
  F  F13  1  0.30230624  0.71430764  0.30230624  1
  F  F14  1  0.69769376  0.00000000  0.41200140  1
  F  F15  1  0.71430764  0.30230624  0.30230624  1
  F  F16  1  0.41200140  -0.00000000  0.69769376  1
  F  F17  1  0.58799860  0.58799860  0.28569236  1
