# generated using pymatgen
data_Pb(ClO3)2
_symmetry_space_group_name_H-M   'P 1'
_cell_length_a   6.91136939
_cell_length_b   6.91136939
_cell_length_c   7.33743675
_cell_angle_alpha   106.48867244
_cell_angle_beta   106.48867244
_cell_angle_gamma   113.41288381
_symmetry_Int_Tables_number   1
_chemical_formula_structural   Pb(ClO3)2
_chemical_formula_sum   'Pb2 Cl4 O12'
_cell_volume   275.30033455
_cell_formula_units_Z   2
loop_
 _symmetry_equiv_pos_site_id
 _symmetry_equiv_pos_as_xyz
  1  'x, y, z'
loop_
 _atom_site_type_symbol
 _atom_site_label
 _atom_site_symmetry_multiplicity
 _atom_site_fract_x
 _atom_site_fract_y
 _atom_site_fract_z
 _atom_site_occupancy
  Pb  Pb16  1  0.75000000  0.75000000  0.00000000  1.0
  Pb  Pb17  1  0.00000000  0.50000000  0.50000000  1.0
  Cl  Cl0  1  0.97230000  0.36510000  0.95620000  1.0
  Cl  Cl1  1  0.40890000  0.01610000  0.04380000  1.0
  Cl  Cl2  1  0.61510000  0.72230000  0.45620000  1.0
  Cl  Cl3  1  0.26610000  0.15890000  0.54380000  1.0
  O  O4  1  0.86500000  0.11900000  0.91400000  1.0
  O  O5  1  0.20500000  0.95100000  0.08600000  1.0
  O  O6  1  0.36900000  0.61500000  0.41400000  1.0
  O  O7  1  0.20100000  0.95500000  0.58600000  1.0
  O  O8  1  0.61700000  0.59500000  0.25400000  1.0
  O  O9  1  0.34100000  0.36300000  0.74600000  1.0
  O  O10  1  0.03700000  0.11900000  0.38800000  1.0
  O  O11  1  0.73100000  0.64900000  0.61200000  1.0
  O  O12  1  0.36900000  0.78700000  0.88800000  1.0
  O  O13  1  0.89900000  0.48100000  0.11200000  1.0
  O  O14  1  0.61300000  0.09100000  0.24600000  1.0
  O  O15  1  0.84500000  0.36700000  0.75400000  1.0
