# generated using pymatgen
data_NaYF4
_symmetry_space_group_name_H-M   'P 1'
_cell_length_a   7.04216792
_cell_length_b   5.94585705
_cell_length_c   11.86974303
_cell_angle_alpha   59.87946503
_cell_angle_beta   90.00000000
_cell_angle_gamma   90.00000000
_symmetry_Int_Tables_number   1
_chemical_formula_structural   NaYF4
_chemical_formula_sum   'Na6 Y6 F24'
_cell_volume   429.89660641
_cell_formula_units_Z   6
loop_
 _symmetry_equiv_pos_site_id
 _symmetry_equiv_pos_as_xyz
  1  'x, y, z'
loop_
 _atom_site_type_symbol
 _atom_site_label
 _atom_site_symmetry_multiplicity
 _atom_site_fract_x
 _atom_site_fract_y
 _atom_site_fract_z
 _atom_site_occupancy
  Na  Na0  1  0.66236561  0.65064982  0.84222108  1
  Na  Na1  1  0.16038575  0.68444917  0.82529006  1
  Na  Na2  1  0.83961425  0.68444917  0.32529006  1
  Na  Na3  1  0.25386166  0.33426074  0.66710912  1
  Na  Na4  1  0.33763439  0.65064982  0.34222108  1
  Na  Na5  1  0.74613834  0.33426074  0.16710912  1
  Y  Y6  1  0.00270352  0.00158171  0.49941103  1
  Y  Y7  1  0.75211893  0.33383928  0.66540510  1
  Y  Y8  1  0.99729648  0.00158171  0.99941103  1
  Y  Y9  1  0.50018658  0.99800131  0.00068384  1
  Y  Y10  1  0.49981342  0.99800131  0.50068384  1
  Y  Y11  1  0.24788107  0.33383928  0.16540510  1
  F  F12  1  0.74703525  0.25320052  0.99478800  1
  F  F13  1  0.24894130  0.27625145  0.98457496  1
  F  F14  1  0.75016104  0.75227221  0.63476365  1
  F  F15  1  0.25017449  0.75816027  0.63053025  1
  F  F16  1  0.98200985  0.04568035  0.68033256  1
  F  F17  1  0.52418272  0.04367739  0.68107209  1
  F  F18  1  0.75105870  0.27625145  0.48457496  1
  F  F19  1  0.25296475  0.25320052  0.49478800  1
  F  F20  1  0.75134964  0.96951371  0.87769432  1
  F  F21  1  0.24817268  0.98936569  0.87899589  1
  F  F22  1  0.74982551  0.75816027  0.13053025  1
  F  F23  1  0.24983896  0.75227221  0.13476365  1
  F  F24  1  0.98180052  0.59404514  0.52197305  1
  F  F25  1  0.51700231  0.59296755  0.52198941  1
  F  F26  1  0.97872183  0.36431265  0.79693251  1
  F  F27  1  0.52290530  0.35777104  0.79623407  1
  F  F28  1  0.47581728  0.04367739  0.18107209  1
  F  F29  1  0.01799015  0.04568035  0.18033256  1
  F  F30  1  0.75182732  0.98936569  0.37899589  1
  F  F31  1  0.24865036  0.96951371  0.37769432  1
  F  F32  1  0.01819948  0.59404514  0.02197305  1
  F  F33  1  0.48299769  0.59296755  0.02198941  1
  F  F34  1  0.02127817  0.36431265  0.29693251  1
  F  F35  1  0.47709470  0.35777104  0.29623407  1
