# generated using pymatgen
data_Rb2NaAl3F12
_symmetry_space_group_name_H-M   'P 1'
_cell_length_a   7.10707400
_cell_length_b   7.20736800
_cell_length_c   10.02867022
_cell_angle_alpha   88.95680380
_cell_angle_beta   90.00000000
_cell_angle_gamma   90.00000000
_symmetry_Int_Tables_number   1
_chemical_formula_structural   Rb2NaAl3F12
_chemical_formula_sum   'Rb4 Na2 Al6 F24'
_cell_volume   513.61641603
_cell_formula_units_Z   2
loop_
 _symmetry_equiv_pos_site_id
 _symmetry_equiv_pos_as_xyz
  1  'x, y, z'
loop_
 _atom_site_type_symbol
 _atom_site_label
 _atom_site_symmetry_multiplicity
 _atom_site_fract_x
 _atom_site_fract_y
 _atom_site_fract_z
 _atom_site_occupancy
  Rb  Rb0  1  0.25141400  0.99017300  0.88088600  1
  Rb  Rb1  1  0.74498000  0.00859800  0.11504200  1
  Rb  Rb2  1  0.75212900  0.52298100  0.35758000  1
  Rb  Rb3  1  0.25364800  0.48476400  0.64085400  1
  Na  Na4  1  0.25441900  0.77849400  0.24809000  1
  Na  Na5  1  0.74701600  0.22246600  0.75161200  1
  Al  Al6  1  0.49366300  0.99886800  0.49800700  1
  Al  Al7  1  0.99502800  0.99725900  0.49711000  1
  Al  Al8  1  0.00569900  0.50397400  0.00057200  1
  Al  Al9  1  0.50139000  0.50671900  0.99915100  1
  Al  Al10  1  0.25668900  0.28801300  0.26954800  1
  Al  Al11  1  0.74985700  0.71048400  0.72406800  1
  F  F12  1  0.25016900  0.92775100  0.50659000  1
  F  F13  1  0.75256600  0.08325500  0.48977500  1
  F  F14  1  0.25518500  0.50450400  0.36200600  1
  F  F15  1  0.75538200  0.50409900  0.64013800  1
  F  F16  1  0.74611400  0.50622100  0.05229600  1
  F  F17  1  0.24515400  0.49329500  0.93996800  1
  F  F18  1  0.74853200  0.91753000  0.81828500  1
  F  F19  1  0.25566600  0.08331200  0.17444500  1
  F  F20  1  0.02629100  0.14327800  0.64260800  1
  F  F21  1  0.52855000  0.85891900  0.36431100  1
  F  F22  1  0.96296800  0.85832700  0.36244700  1
  F  F23  1  0.47198500  0.14647300  0.64353500  1
  F  F24  1  0.06852000  0.20262500  0.38561400  1
  F  F25  1  0.56992500  0.80446800  0.61413500  1
  F  F26  1  0.93906200  0.80381100  0.61920300  1
  F  F27  1  0.44218000  0.19399800  0.38651900  1
  F  F28  1  0.96598900  0.28107900  0.93465800  1
  F  F29  1  0.46303400  0.72629400  0.07328800  1
  F  F30  1  0.03191000  0.72521200  0.06630900  1
  F  F31  1  0.53514400  0.27493500  0.93496500  1
  F  F32  1  0.55420100  0.60842200  0.83482300  1
  F  F33  1  0.06266900  0.38443500  0.15973500  1
  F  F34  1  0.44471000  0.38314500  0.16278500  1
  F  F35  1  0.93544400  0.60867300  0.83984600  1
