# generated using pymatgen
data_Pb3SeO5
_symmetry_space_group_name_H-M   'P 1'
_cell_length_a   5.75270000
_cell_length_b   7.51367319
_cell_length_c   7.51367319
_cell_angle_alpha   91.04068348
_cell_angle_beta   90.00000000
_cell_angle_gamma   90.00000000
_symmetry_Int_Tables_number   1
_chemical_formula_structural   Pb3SeO5
_chemical_formula_sum   'Pb6 Se2 O10'
_cell_volume   324.71674631
_cell_formula_units_Z   2
loop_
 _symmetry_equiv_pos_site_id
 _symmetry_equiv_pos_as_xyz
  1  'x, y, z'
loop_
 _atom_site_type_symbol
 _atom_site_label
 _atom_site_symmetry_multiplicity
 _atom_site_fract_x
 _atom_site_fract_y
 _atom_site_fract_z
 _atom_site_occupancy
  Pb  Pb10  1  0.18630000  0.11773000  0.88227000  1.0
  Pb  Pb11  1  0.68630000  0.88227000  0.11773000  1.0
  Pb  Pb12  1  0.19030000  0.64024000  0.86446000  1.0
  Pb  Pb13  1  0.69030000  0.35976000  0.13554000  1.0
  Pb  Pb14  1  0.19030000  0.13554000  0.35976000  1.0
  Pb  Pb15  1  0.69030000  0.86446000  0.64024000  1.0
  Se  Se16  1  0.13810000  0.63050000  0.36950000  1.0
  Se  Se17  1  0.63810000  0.36950000  0.63050000  1.0
  O  O0  1  0.95300000  0.86570000  0.86370000  1.0
  O  O1  1  0.45300000  0.13430000  0.13630000  1.0
  O  O2  1  0.95300000  0.13630000  0.13430000  1.0
  O  O3  1  0.45300000  0.86370000  0.86570000  1.0
  O  O4  1  0.23600000  0.77630000  0.22370000  1.0
  O  O5  1  0.73600000  0.22370000  0.77630000  1.0
  O  O6  1  0.27800000  0.44300000  0.30100000  1.0
  O  O7  1  0.77800000  0.55700000  0.69900000  1.0
  O  O8  1  0.27800000  0.69900000  0.55700000  1.0
  O  O9  1  0.77800000  0.30100000  0.44300000  1.0
