# generated using pymatgen
data_Ba4Y3F17
_symmetry_space_group_name_H-M   'P 1'
_cell_length_a   9.30934256
_cell_length_b   9.28939294
_cell_length_c   9.37462646
_cell_angle_alpha   72.82400591
_cell_angle_beta   72.84749938
_cell_angle_gamma   72.95756218
_symmetry_Int_Tables_number   1
_chemical_formula_structural   Ba4Y3F17
_chemical_formula_sum   'Ba8 Y6 F34'
_cell_volume   721.00897262
_cell_formula_units_Z   2
loop_
 _symmetry_equiv_pos_site_id
 _symmetry_equiv_pos_as_xyz
  1  'x, y, z'
loop_
 _atom_site_type_symbol
 _atom_site_label
 _atom_site_symmetry_multiplicity
 _atom_site_fract_x
 _atom_site_fract_y
 _atom_site_fract_z
 _atom_site_occupancy
  Ba  Ba0  1  0.10824827  0.68984557  0.95061445  1
  Ba  Ba1  1  0.72934118  0.73595131  0.73149875  1
  Ba  Ba2  1  0.93945327  0.11565977  0.68591719  1
  Ba  Ba3  1  0.31264781  0.05637364  0.88665173  1
  Ba  Ba4  1  0.68425009  0.94319378  0.11803097  1
  Ba  Ba5  1  0.05102534  0.88742478  0.31520916  1
  Ba  Ba6  1  0.26372252  0.27030970  0.26853414  1
  Ba  Ba7  1  0.88624681  0.31300970  0.05671261  1
  Y  Y8  1  0.53151610  0.39072464  0.83766543  1
  Y  Y9  1  0.39041956  0.84152203  0.53197914  1
  Y  Y10  1  0.15929064  0.46994001  0.60926793  1
  Y  Y11  1  0.81821058  0.52509748  0.39254610  1
  Y  Y12  1  0.60972647  0.18558588  0.46440285  1
  Y  Y13  1  0.47252956  0.60574232  0.17007443  1
  F  F14  1  0.00070263  0.99537653  0.00475824  1
  F  F15  1  0.54343219  0.81651758  0.98737398  1
  F  F16  1  0.85723379  0.86266811  0.86172864  1
  F  F17  1  0.63635103  0.51143654  0.95596999  1
  F  F18  1  0.98695380  0.54901084  0.81566428  1
  F  F19  1  0.73358241  0.21702979  0.91910945  1
  F  F20  1  0.81036230  0.98889066  0.54759928  1
  F  F21  1  0.50706979  0.96583233  0.63639917  1
  F  F22  1  0.21590101  0.91630131  0.73524874  1
  F  F23  1  0.45461177  0.65072763  0.73450675  1
  F  F24  1  0.30397508  0.41008278  0.78772624  1
  F  F25  1  0.74217332  0.44874729  0.65560004  1
  F  F26  1  0.95546160  0.63865063  0.51284758  1
  F  F27  1  0.59339488  0.20431510  0.70312561  1
  F  F28  1  0.08167735  0.26571778  0.78245616  1
  F  F29  1  0.64812861  0.74007905  0.45470024  1
  F  F30  1  0.21216625  0.69792241  0.58439938  1
  F  F31  1  0.57041437  0.46106915  0.45201769  1
  F  F32  1  0.83141777  0.27633213  0.40080778  1
  F  F33  1  0.34734968  0.26526097  0.54524713  1
  F  F34  1  0.91003604  0.73122584  0.22672856  1
  F  F35  1  0.41835565  0.79239915  0.30181458  1
  F  F36  1  0.03862249  0.36533908  0.49113464  1
  F  F37  1  0.26465221  0.54421996  0.35136496  1
  F  F38  1  0.71383202  0.59376679  0.18076251  1
  F  F39  1  0.54998387  0.34143030  0.24114438  1
  F  F40  1  0.77847359  0.08467185  0.26773970  1
  F  F41  1  0.48739321  0.04573112  0.36379629  1
  F  F42  1  0.18274731  0.01378449  0.45450867  1
  F  F43  1  0.26653083  0.77874422  0.09100718  1
  F  F44  1  0.01248418  0.45544255  0.18417194  1
  F  F45  1  0.36042496  0.49278608  0.03946652  1
  F  F46  1  0.14079802  0.13925354  0.13848852  1
  F  F47  1  0.45097979  0.18555381  0.01398033  1
