# generated using pymatgen
data_BaBPF10
_symmetry_space_group_name_H-M   'P 1'
_cell_length_a   10.54552034
_cell_length_b   10.54552034
_cell_length_c   6.30707700
_cell_angle_alpha   90.00000000
_cell_angle_beta   90.00000000
_cell_angle_gamma   120.00000000
_symmetry_Int_Tables_number   1
_chemical_formula_structural   BaBPF10
_chemical_formula_sum   'Ba3 B3 P3 F30'
_cell_volume   607.42797881
_cell_formula_units_Z   3
loop_
 _symmetry_equiv_pos_site_id
 _symmetry_equiv_pos_as_xyz
  1  'x, y, z'
loop_
 _atom_site_type_symbol
 _atom_site_label
 _atom_site_symmetry_multiplicity
 _atom_site_fract_x
 _atom_site_fract_y
 _atom_site_fract_z
 _atom_site_occupancy
  Ba  Ba0  1  0.00000000  0.00000000  0.50000000  1
  Ba  Ba1  1  0.66666667  0.33333333  -0.00000000  1
  Ba  Ba2  1  0.33333333  0.66666667  -0.00000000  1
  B  B3  1  0.75228600  0.00000000  -0.00000000  1
  B  B4  1  0.00000000  0.75228600  -0.00000000  1
  B  B5  1  0.24771400  0.24771400  -0.00000000  1
  P  P6  1  0.43898600  0.00000000  0.50000000  1
  P  P7  1  0.00000000  0.43898600  0.50000000  1
  P  P8  1  0.56101400  0.56101400  0.50000000  1
  F  F9  1  0.59154800  0.00000000  0.50000000  1
  F  F10  1  0.00000000  0.59154800  0.50000000  1
  F  F11  1  0.40845200  0.40845200  0.50000000  1
  F  F12  1  0.28422300  0.00000000  0.50000000  1
  F  F13  1  0.00000000  0.28422300  0.50000000  1
  F  F14  1  0.71577700  0.71577700  0.50000000  1
  F  F15  1  0.50136600  0.12758700  0.68459100  1
  F  F16  1  0.87241300  0.37377900  0.68459100  1
  F  F17  1  0.62622100  0.49863400  0.68459100  1
  F  F18  1  0.50136600  0.12758700  0.31540900  1
  F  F19  1  0.87241300  0.37377900  0.31540900  1
  F  F20  1  0.62622100  0.49863400  0.31540900  1
  F  F21  1  0.37377900  0.87241300  0.68459100  1
  F  F22  1  0.49863400  0.62622100  0.68459100  1
  F  F23  1  0.12758700  0.50136600  0.68459100  1
  F  F24  1  0.37377900  0.87241300  0.31540900  1
  F  F25  1  0.49863400  0.62622100  0.31540900  1
  F  F26  1  0.12758700  0.50136600  0.31540900  1
  F  F27  1  0.82900500  0.00000000  0.81691100  1
  F  F28  1  0.00000000  0.82900500  0.81691100  1
  F  F29  1  0.17099500  0.17099500  0.81691100  1
  F  F30  1  0.82900500  0.00000000  0.18308900  1
  F  F31  1  0.00000000  0.82900500  0.18308900  1
  F  F32  1  0.17099500  0.17099500  0.18308900  1
  F  F33  1  0.38909067  0.26273033  -0.00000000  1
  F  F34  1  0.73726967  0.12636033  -0.00000000  1
  F  F35  1  0.87363967  0.61090933  -0.00000000  1
  F  F36  1  0.12636033  0.73726967  -0.00000000  1
  F  F37  1  0.61090933  0.87363967  -0.00000000  1
  F  F38  1  0.26273033  0.38909067  -0.00000000  1
