# generated using pymatgen
data_Ta2SnO6
_symmetry_space_group_name_H-M   'P 1'
_cell_length_a   4.87199991
_cell_length_b   5.54800015
_cell_length_c   8.89650384
_cell_angle_alpha   90.56745256
_cell_angle_beta   105.89143349
_cell_angle_gamma   90.00000000
_symmetry_Int_Tables_number   1
_chemical_formula_structural   Ta2SnO6
_chemical_formula_sum   'Ta4 Sn2 O12'
_cell_volume   231.26869090
_cell_formula_units_Z   2
loop_
 _symmetry_equiv_pos_site_id
 _symmetry_equiv_pos_as_xyz
  1  'x, y, z'
loop_
 _atom_site_type_symbol
 _atom_site_label
 _atom_site_symmetry_multiplicity
 _atom_site_fract_x
 _atom_site_fract_y
 _atom_site_fract_z
 _atom_site_occupancy
  Ta  Ta14  1  0.41550000  0.16100000  0.34060000  1.0
  Ta  Ta15  1  0.92510000  0.66100000  0.34060000  1.0
  Ta  Ta16  1  0.07620000  0.32570000  0.66140000  1.0
  Ta  Ta17  1  0.58520000  0.82570000  0.66140000  1.0
  Sn  Sn12  1  0.22670000  0.73220000  0.99440000  1.0
  Sn  Sn13  1  0.76770000  0.23220000  0.99440000  1.0
  O  O0  1  0.38830000  0.57820000  0.71780000  1.0
  O  O1  1  0.59430000  0.43810000  0.28540000  1.0
  O  O2  1  0.14800000  0.36010000  0.43660000  1.0
  O  O3  1  0.32950000  0.07820000  0.71780000  1.0
  O  O4  1  0.99440000  0.58930000  0.14220000  1.0
  O  O5  1  0.01890000  0.39670000  0.85500000  1.0
  O  O6  1  0.14780000  0.08930000  0.14220000  1.0
  O  O7  1  0.83710000  0.65100000  0.56080000  1.0
  O  O8  1  0.83610000  0.89670000  0.85500000  1.0
  O  O9  1  0.28860000  0.86010000  0.43660000  1.0
  O  O10  1  0.72370000  0.15100000  0.56080000  1.0
  O  O11  1  0.69110000  0.93810000  0.28540000  1.0
