# generated using pymatgen
data_RbCaCl3
_symmetry_space_group_name_H-M   'P 1'
_cell_length_a   7.50794256
_cell_length_b   7.50794256
_cell_length_c   7.50794256
_cell_angle_alpha   60.88404013
_cell_angle_beta   60.88404013
_cell_angle_gamma   60.88404013
_symmetry_Int_Tables_number   1
_chemical_formula_structural   RbCaCl3
_chemical_formula_sum   'Rb2 Ca2 Cl6'
_cell_volume   305.22319822
_cell_formula_units_Z   2
loop_
 _symmetry_equiv_pos_site_id
 _symmetry_equiv_pos_as_xyz
  1  'x, y, z'
loop_
 _atom_site_type_symbol
 _atom_site_label
 _atom_site_symmetry_multiplicity
 _atom_site_fract_x
 _atom_site_fract_y
 _atom_site_fract_z
 _atom_site_occupancy
  Rb  Rb0  1  0.25797985  0.25797985  0.25797985  1
  Rb  Rb1  1  0.75797985  0.75797985  0.75797985  1
  Ca  Ca2  1  0.00588517  0.00588517  0.00588517  1
  Ca  Ca3  1  0.50588517  0.50588517  0.50588517  1
  Cl  Cl4  1  0.81545948  0.25330790  0.69586661  1
  Cl  Cl5  1  0.69586661  0.81545948  0.25330790  1
  Cl  Cl6  1  0.25330790  0.69586661  0.81545948  1
  Cl  Cl7  1  0.31545948  0.19586661  0.75330790  1
  Cl  Cl8  1  0.19586661  0.75330790  0.31545948  1
  Cl  Cl9  1  0.75330790  0.31545948  0.19586661  1
