# generated using pymatgen
data_Na2Ca2(CO3)3
_symmetry_space_group_name_H-M   'P 1'
_cell_length_a   4.94700000
_cell_length_b   6.56179648
_cell_length_c   6.56179648
_cell_angle_alpha   114.41202988
_cell_angle_beta   90.00000000
_cell_angle_gamma   90.00000000
_symmetry_Int_Tables_number   1
_chemical_formula_structural   Na2Ca2(CO3)3
_chemical_formula_sum   'Na2 Ca2 C3 O9'
_cell_volume   193.96063293
_cell_formula_units_Z   1
loop_
 _symmetry_equiv_pos_site_id
 _symmetry_equiv_pos_as_xyz
  1  'x, y, z'
loop_
 _atom_site_type_symbol
 _atom_site_label
 _atom_site_symmetry_multiplicity
 _atom_site_fract_x
 _atom_site_fract_y
 _atom_site_fract_z
 _atom_site_occupancy
  Na  Na5  1  0.00000000  0.92630000  0.92630000  1.0
  Na  Na6  1  0.50000000  0.61220000  0.61220000  1.0
  Ca  Ca3  1  0.50000000  0.21659000  0.78341000  1.0
  Ca  Ca4  1  0.50000000  0.78341000  0.21659000  1.0
  C  C0  1  0.00000000  0.87360000  0.46580000  1.0
  C  C1  1  0.00000000  0.46580000  0.87360000  1.0
  C  C2  1  0.50000000  0.22530000  0.22530000  1.0
  O  O7  1  0.50000000  0.41240000  0.20980000  1.0
  O  O8  1  0.50000000  0.20980000  0.41240000  1.0
  O  O9  1  0.00000000  0.87570000  0.27270000  1.0
  O  O10  1  0.50000000  0.04150000  0.04150000  1.0
  O  O11  1  0.00000000  0.27270000  0.87570000  1.0
  O  O12  1  0.22610000  0.86960000  0.56080000  1.0
  O  O13  1  0.77390000  0.56080000  0.86960000  1.0
  O  O14  1  0.77390000  0.86960000  0.56080000  1.0
  O  O15  1  0.22610000  0.56080000  0.86960000  1.0
