# generated using pymatgen
data_Sr7(H6Br)2
_symmetry_space_group_name_H-M   'P 1'
_cell_length_a   10.04706334
_cell_length_b   10.04706334
_cell_length_c   4.01576910
_cell_angle_alpha   90.00000000
_cell_angle_beta   90.00000000
_cell_angle_gamma   120.00000000
_symmetry_Int_Tables_number   1
_chemical_formula_structural   Sr7(H6Br)2
_chemical_formula_sum   'Sr7 H12 Br2'
_cell_volume   351.05700716
_cell_formula_units_Z   1
loop_
 _symmetry_equiv_pos_site_id
 _symmetry_equiv_pos_as_xyz
  1  'x, y, z'
loop_
 _atom_site_type_symbol
 _atom_site_label
 _atom_site_symmetry_multiplicity
 _atom_site_fract_x
 _atom_site_fract_y
 _atom_site_fract_z
 _atom_site_occupancy
  Sr  Sr0  1  0.27426695  0.22343046  0.50000000  1
  Sr  Sr1  1  0.56661377  0.64136102  0.00000000  1
  Sr  Sr2  1  0.35863898  0.92525275  0.00000000  1
  Sr  Sr3  1  0.07474725  0.43338623  0.00000000  1
  Sr  Sr4  1  0.66666667  0.33333333  0.00000000  1
  Sr  Sr5  1  0.94916351  0.72573305  0.50000000  1
  Sr  Sr6  1  0.77656954  0.05083649  0.50000000  1
  H  H7  1  0.56126053  0.12050336  0.50000000  1
  H  H8  1  0.87949664  0.44075716  0.50000000  1
  H  H9  1  0.55924284  0.43873947  0.50000000  1
  H  H10  1  0.71712319  0.77359424  0.50000000  1
  H  H11  1  0.22640576  0.94352894  0.50000000  1
  H  H12  1  0.05647106  0.28287681  0.50000000  1
  H  H13  1  0.82044563  0.21218274  0.00000000  1
  H  H14  1  0.78781726  0.60826289  0.00000000  1
  H  H15  1  0.39173711  0.17955437  0.00000000  1
  H  H16  1  0.30541787  0.39504138  0.00000000  1
  H  H17  1  0.08962351  0.69458213  0.00000000  1
  H  H18  1  0.60495862  0.91037649  0.00000000  1
  Br  Br19  1  0.00000000  0.00000000  0.00000000  1
  Br  Br20  1  0.33333333  0.66666667  0.50000000  1
