# generated using pymatgen
data_CsAs4F13
_symmetry_space_group_name_H-M   'P 1'
_cell_length_a   6.72600000
_cell_length_b   7.55533461
_cell_length_c   7.55533461
_cell_angle_alpha   101.42752350
_cell_angle_beta   116.43075796
_cell_angle_gamma   63.56924204
_symmetry_Int_Tables_number   1
_chemical_formula_structural   CsAs4F13
_chemical_formula_sum   'Cs1 As4 F13'
_cell_volume   307.87129686
_cell_formula_units_Z   1
loop_
 _symmetry_equiv_pos_site_id
 _symmetry_equiv_pos_as_xyz
  1  'x, y, z'
loop_
 _atom_site_type_symbol
 _atom_site_label
 _atom_site_symmetry_multiplicity
 _atom_site_fract_x
 _atom_site_fract_y
 _atom_site_fract_z
 _atom_site_occupancy
  Cs  Cs4  1  0.00000000  0.00000000  0.00000000  1.0
  As  As0  1  0.18057000  0.28858000  0.67836000  1.0
  As  As1  1  0.49779000  0.32164000  0.28858000  1.0
  As  As2  1  0.53085000  0.67836000  0.71142000  1.0
  As  As3  1  0.79079000  0.71142000  0.32164000  1.0
  F  F5  1  0.16110000  0.26620000  0.44000000  1.0
  F  F6  1  0.27890000  0.56000000  0.26620000  1.0
  F  F7  1  0.57270000  0.44000000  0.73380000  1.0
  F  F8  1  0.98730000  0.73380000  0.56000000  1.0
  F  F9  1  0.04920000  0.12680000  0.64560000  1.0
  F  F10  1  0.75000000  0.50000000  0.50000000  1.0
  F  F11  1  0.80420000  0.90960000  0.24440000  1.0
  F  F12  1  0.44020000  0.75560000  0.90960000  1.0
  F  F13  1  0.28620000  0.24440000  0.09040000  1.0
  F  F14  1  0.46940000  0.09040000  0.75560000  1.0
  F  F15  1  0.53040000  0.87320000  0.35440000  1.0
  F  F16  1  0.82400000  0.64560000  0.87320000  1.0
  F  F17  1  0.59640000  0.35440000  0.12680000  1.0
