# generated using pymatgen
data_KBeF3
_symmetry_space_group_name_H-M   'P 1'
_cell_length_a   4.45356696
_cell_length_b   5.41615052
_cell_length_c   11.98714706
_cell_angle_alpha   90.00000000
_cell_angle_beta   90.00000000
_cell_angle_gamma   90.00000000
_symmetry_Int_Tables_number   1
_chemical_formula_structural   KBeF3
_chemical_formula_sum   'K4 Be4 F12'
_cell_volume   289.14423988
_cell_formula_units_Z   4
loop_
 _symmetry_equiv_pos_site_id
 _symmetry_equiv_pos_as_xyz
  1  'x, y, z'
loop_
 _atom_site_type_symbol
 _atom_site_label
 _atom_site_symmetry_multiplicity
 _atom_site_fract_x
 _atom_site_fract_y
 _atom_site_fract_z
 _atom_site_occupancy
  K  K0  1  0.27846680  0.31699622  0.35964014  1
  K  K1  1  0.22153320  0.68300378  0.85964014  1
  K  K2  1  0.72153320  0.81699622  0.14035986  1
  K  K3  1  0.77846680  0.18300378  0.64035986  1
  Be  Be4  1  0.15728643  0.29976018  0.07051315  1
  Be  Be5  1  0.34271357  0.70023982  0.57051315  1
  Be  Be6  1  0.84271357  0.79976018  0.42948685  1
  Be  Be7  1  0.65728643  0.20023982  0.92948685  1
  F  F8  1  0.23003785  0.11875978  0.16301210  1
  F  F9  1  0.26996215  0.88124022  0.66301210  1
  F  F10  1  0.76996215  0.61875978  0.33698790  1
  F  F11  1  0.73003785  0.38124022  0.83698790  1
  F  F12  1  0.23190115  0.56936408  0.09096365  1
  F  F13  1  0.26809885  0.43063592  0.59096365  1
  F  F14  1  0.76809885  0.06936408  0.40903635  1
  F  F15  1  0.73190115  0.93063592  0.90903635  1
  F  F16  1  0.80581074  0.28539384  0.04441160  1
  F  F17  1  0.69418926  0.71460616  0.54441160  1
  F  F18  1  0.19418926  0.78539384  0.45558840  1
  F  F19  1  0.30581074  0.21460616  0.95558840  1
