# generated using pymatgen
data_Te2SO7
_symmetry_space_group_name_H-M   'P 1'
_cell_length_a   8.87980000
_cell_length_b   6.93700000
_cell_length_c   4.65350000
_cell_angle_alpha   90.00000000
_cell_angle_beta   90.00000000
_cell_angle_gamma   90.00000000
_symmetry_Int_Tables_number   1
_chemical_formula_structural   Te2SO7
_chemical_formula_sum   'Te4 S2 O14'
_cell_volume   286.65174969
_cell_formula_units_Z   2
loop_
 _symmetry_equiv_pos_site_id
 _symmetry_equiv_pos_as_xyz
  1  'x, y, z'
loop_
 _atom_site_type_symbol
 _atom_site_label
 _atom_site_symmetry_multiplicity
 _atom_site_fract_x
 _atom_site_fract_y
 _atom_site_fract_z
 _atom_site_occupancy
  Te  Te0  1  0.69870000  0.32180000  0.75000000  1.0
  Te  Te1  1  0.80130000  0.67820000  0.25000000  1.0
  Te  Te2  1  0.19870000  0.67820000  0.25000000  1.0
  Te  Te3  1  0.30130000  0.32180000  0.75000000  1.0
  S  S4  1  0.50000000  0.01820000  0.17100000  1.0
  S  S5  1  0.00000000  0.98180000  0.67100000  1.0
  O  O6  1  0.50000000  0.81810000  0.27180000  1.0
  O  O7  1  0.00000000  0.18190000  0.77180000  1.0
  O  O8  1  0.76350000  0.40710000  0.11730000  1.0
  O  O9  1  0.73650000  0.59290000  0.61730000  1.0
  O  O10  1  0.26350000  0.59290000  0.61730000  1.0
  O  O11  1  0.23650000  0.40710000  0.11730000  1.0
  O  O12  1  0.36240000  0.05050000  0.99380000  1.0
  O  O13  1  0.13760000  0.94950000  0.49380000  1.0
  O  O14  1  0.86240000  0.94950000  0.49380000  1.0
  O  O15  1  0.63760000  0.05050000  0.99380000  1.0
  O  O16  1  0.00000000  0.84050000  0.90850000  1.0
  O  O17  1  0.50000000  0.15950000  0.40850000  1.0
  O  O18  1  0.00000000  0.58790000  0.33780000  1.0
  O  O19  1  0.50000000  0.41210000  0.83780000  1.0
