# generated using pymatgen
data_Sr(ClO3)2
_symmetry_space_group_name_H-M   'P 1'
_cell_length_a   6.84178678
_cell_length_b   6.84178678
_cell_length_c   7.29903303
_cell_angle_alpha   106.27403796
_cell_angle_beta   106.27403796
_cell_angle_gamma   113.70826711
_symmetry_Int_Tables_number   1
_chemical_formula_structural   Sr(ClO3)2
_chemical_formula_sum   'Sr2 Cl4 O12'
_cell_volume   268.62184925
_cell_formula_units_Z   2
loop_
 _symmetry_equiv_pos_site_id
 _symmetry_equiv_pos_as_xyz
  1  'x, y, z'
loop_
 _atom_site_type_symbol
 _atom_site_label
 _atom_site_symmetry_multiplicity
 _atom_site_fract_x
 _atom_site_fract_y
 _atom_site_fract_z
 _atom_site_occupancy
  Sr  Sr16  1  0.00000000  0.50000000  0.50000000  1.0
  Sr  Sr17  1  0.75000000  0.75000000  0.00000000  1.0
  Cl  Cl0  1  0.25960000  0.15140000  0.54080000  1.0
  Cl  Cl1  1  0.61060000  0.71880000  0.45920000  1.0
  Cl  Cl2  1  0.40140000  0.00960000  0.04080000  1.0
  Cl  Cl3  1  0.96880000  0.36060000  0.95920000  1.0
  O  O4  1  0.03380000  0.11220000  0.38420000  1.0
  O  O5  1  0.72800000  0.64960000  0.61580000  1.0
  O  O6  1  0.36220000  0.78380000  0.88420000  1.0
  O  O7  1  0.89960000  0.47800000  0.11580000  1.0
  O  O8  1  0.60820000  0.08840000  0.23800000  1.0
  O  O9  1  0.85040000  0.37020000  0.76200000  1.0
  O  O10  1  0.33840000  0.35820000  0.73800000  1.0
  O  O11  1  0.62020000  0.60040000  0.26200000  1.0
  O  O12  1  0.18670000  0.94590000  0.58460000  1.0
  O  O13  1  0.36130000  0.60210000  0.41540000  1.0
  O  O14  1  0.19590000  0.93670000  0.08460000  1.0
  O  O15  1  0.85210000  0.11130000  0.91540000  1.0
