# generated using pymatgen
data_CsH2F3
_symmetry_space_group_name_H-M   'P 1'
_cell_length_a   7.34023501
_cell_length_b   8.98032584
_cell_length_c   11.34808852
_cell_angle_alpha   90.00000000
_cell_angle_beta   90.00000000
_cell_angle_gamma   90.00000000
_symmetry_Int_Tables_number   1
_chemical_formula_structural   CsH2F3
_chemical_formula_sum   'Cs8 H16 F24'
_cell_volume   748.03991883
_cell_formula_units_Z   8
loop_
 _symmetry_equiv_pos_site_id
 _symmetry_equiv_pos_as_xyz
  1  'x, y, z'
loop_
 _atom_site_type_symbol
 _atom_site_label
 _atom_site_symmetry_multiplicity
 _atom_site_fract_x
 _atom_site_fract_y
 _atom_site_fract_z
 _atom_site_occupancy
  Cs  Cs0  1  0.01634845  0.35491735  0.10964020  1
  Cs  Cs1  1  0.48365155  0.64508265  0.60964020  1
  Cs  Cs2  1  0.98365155  0.85491735  0.39035980  1
  Cs  Cs3  1  0.51634845  0.14508265  0.89035980  1
  Cs  Cs4  1  0.52681618  0.21457316  0.33950543  1
  Cs  Cs5  1  0.97318382  0.78542684  0.83950543  1
  Cs  Cs6  1  0.47318382  0.71457316  0.16049457  1
  Cs  Cs7  1  0.02681618  0.28542684  0.66049457  1
  H  H8  1  0.53547074  0.41029256  0.05844626  1
  H  H9  1  0.96452926  0.58970744  0.55844626  1
  H  H10  1  0.46452926  0.91029256  0.44155374  1
  H  H11  1  0.03547074  0.08970744  0.94155374  1
  H  H12  1  0.21224389  0.49423933  0.37262529  1
  H  H13  1  0.28775611  0.50576067  0.87262529  1
  H  H14  1  0.78775611  0.99423933  0.12737471  1
  H  H15  1  0.71224389  0.00576067  0.62737471  1
  H  H16  1  0.20256612  0.02012758  0.12012866  1
  H  H17  1  0.29743388  0.97987242  0.62012866  1
  H  H18  1  0.79743388  0.52012758  0.37987134  1
  H  H19  1  0.70256612  0.47987242  0.87987134  1
  H  H20  1  0.02627635  0.26294624  0.38549663  1
  H  H21  1  0.47372365  0.73705376  0.88549663  1
  H  H22  1  0.97372365  0.76294624  0.11450337  1
  H  H23  1  0.52627635  0.23705376  0.61450337  1
  F  F24  1  0.16044828  0.35376588  0.36186905  1
  F  F25  1  0.33955172  0.64623412  0.86186905  1
  F  F26  1  0.83955172  0.85376588  0.13813095  1
  F  F27  1  0.66044828  0.14623412  0.63813095  1
  F  F28  1  0.16864484  0.03688799  0.00503548  1
  F  F29  1  0.33135516  0.96311201  0.50503548  1
  F  F30  1  0.83135516  0.53688799  0.49496452  1
  F  F31  1  0.66864484  0.46311201  0.99496452  1
  F  F32  1  0.26266083  0.59901013  0.37614140  1
  F  F33  1  0.23733917  0.40098987  0.87614140  1
  F  F34  1  0.73733917  0.09901013  0.12385860  1
  F  F35  1  0.76266083  0.90098987  0.62385860  1
  F  F36  1  0.23715993  0.01039300  0.20577803  1
  F  F37  1  0.26284007  0.98960700  0.70577803  1
  F  F38  1  0.76284007  0.51039300  0.29422197  1
  F  F39  1  0.73715993  0.48960700  0.79422197  1
  F  F40  1  0.43371993  0.37126484  0.11134174  1
  F  F41  1  0.06628007  0.62873516  0.61134174  1
  F  F42  1  0.56628007  0.87126484  0.38865826  1
  F  F43  1  0.93371993  0.12873516  0.88865826  1
  F  F44  1  0.07445134  0.68869203  0.09654721  1
  F  F45  1  0.42554866  0.31130797  0.59654721  1
  F  F46  1  0.92554866  0.18869203  0.40345279  1
  F  F47  1  0.57445134  0.81130797  0.90345279  1
