# generated using pymatgen
data_Ca2B5H2ClO10
_symmetry_space_group_name_H-M   'P 1'
_cell_length_a   6.28600000
_cell_length_b   6.45200000
_cell_length_c   6.55900000
_cell_angle_alpha   74.14000002
_cell_angle_beta   61.59999999
_cell_angle_gamma   61.28000001
_symmetry_Int_Tables_number   1
_chemical_formula_structural   Ca2B5H2ClO10
_chemical_formula_sum   'Ca2 B5 H2 Cl1 O10'
_cell_volume   204.86747612
_cell_formula_units_Z   1
loop_
 _symmetry_equiv_pos_site_id
 _symmetry_equiv_pos_as_xyz
  1  'x, y, z'
loop_
 _atom_site_type_symbol
 _atom_site_label
 _atom_site_symmetry_multiplicity
 _atom_site_fract_x
 _atom_site_fract_y
 _atom_site_fract_z
 _atom_site_occupancy
  Ca  Ca0  1  0.89010000  0.45240000  0.45160000  1.0
  Ca  Ca1  1  0.00000000  0.00000000  0.00000000  1.0
  B  B2  1  0.52870000  0.47410000  0.12930000  1.0
  B  B3  1  0.39840000  0.33060000  0.90910000  1.0
  B  B4  1  0.92870000  0.55150000  0.97550000  1.0
  B  B5  1  0.51630000  0.88230000  0.99700000  1.0
  B  B6  1  0.28620000  0.44760000  0.57890000  1.0
  H  H7  1  0.59000000  0.98200000  0.44300000  1.0
  H  H8  1  0.82000000  0.92600000  0.52300000  1.0
  Cl  Cl9  1  0.18790000  0.97960000  0.52700000  1.0
  O  O10  1  0.77820000  0.88620000  0.41870000  1.0
  O  O11  1  0.32500000  0.44770000  0.35760000  1.0
  O  O12  1  0.41510000  0.72210000  0.03700000  1.0
  O  O13  1  0.77420000  0.42050000  0.14750000  1.0
  O  O14  1  0.59720000  0.30810000  0.97240000  1.0
  O  O15  1  0.36280000  0.10800000  0.94820000  1.0
  O  O16  1  0.48060000  0.39460000  0.65010000  1.0
  O  O17  1  0.13800000  0.51190000  0.03480000  1.0
  O  O18  1  0.76200000  0.81050000  0.98980000  1.0
  O  O19  1  0.02940000  0.48510000  0.73660000  1.0
