# generated using pymatgen
data_Ba(ClO3)2
_symmetry_space_group_name_H-M   'P 1'
_cell_length_a   7.03919022
_cell_length_b   7.03919022
_cell_length_c   7.67701516
_cell_angle_alpha   105.99778441
_cell_angle_beta   105.99778441
_cell_angle_gamma   113.50662223
_symmetry_Int_Tables_number   1
_chemical_formula_structural   Ba(ClO3)2
_chemical_formula_sum   'Ba2 Cl4 O12'
_cell_volume   301.55079459
_cell_formula_units_Z   2
loop_
 _symmetry_equiv_pos_site_id
 _symmetry_equiv_pos_as_xyz
  1  'x, y, z'
loop_
 _atom_site_type_symbol
 _atom_site_label
 _atom_site_symmetry_multiplicity
 _atom_site_fract_x
 _atom_site_fract_y
 _atom_site_fract_z
 _atom_site_occupancy
  Ba  Ba0  1  0.00000000  0.50000000  0.50000000  1.0
  Ba  Ba1  1  0.75000000  0.75000000  0.00000000  1.0
  Cl  Cl2  1  0.26248000  0.15764000  0.54132000  1.0
  Cl  Cl3  1  0.61632000  0.72116000  0.45868000  1.0
  Cl  Cl4  1  0.40764000  0.01248000  0.04132000  1.0
  Cl  Cl5  1  0.97116000  0.36632000  0.95868000  1.0
  O  O6  1  0.04350000  0.10970000  0.38660000  1.0
  O  O7  1  0.72310000  0.65690000  0.61340000  1.0
  O  O8  1  0.35970000  0.79350000  0.88660000  1.0
  O  O9  1  0.90690000  0.47310000  0.11340000  1.0
  O  O10  1  0.60950000  0.07230000  0.22000000  1.0
  O  O11  1  0.85230000  0.38950000  0.78000000  1.0
  O  O12  1  0.32230000  0.35950000  0.72000000  1.0
  O  O13  1  0.63950000  0.60230000  0.28000000  1.0
  O  O14  1  0.20270000  0.96450000  0.59060000  1.0
  O  O15  1  0.37390000  0.61210000  0.40940000  1.0
  O  O16  1  0.21450000  0.95270000  0.09060000  1.0
  O  O17  1  0.86210000  0.12390000  0.90940000  1.0
