# generated using pymatgen
data_KLiSi2O5
_symmetry_space_group_name_H-M   'P 1'
_cell_length_a   5.98030037
_cell_length_b   4.79960000
_cell_length_c   8.15990000
_cell_angle_alpha   90.00000000
_cell_angle_beta   93.47699611
_cell_angle_gamma   90.00000000
_symmetry_Int_Tables_number   1
_chemical_formula_structural   KLiSi2O5
_chemical_formula_sum   'K2 Li2 Si4 O10'
_cell_volume   233.78288042
_cell_formula_units_Z   2
loop_
 _symmetry_equiv_pos_site_id
 _symmetry_equiv_pos_as_xyz
  1  'x, y, z'
loop_
 _atom_site_type_symbol
 _atom_site_label
 _atom_site_symmetry_multiplicity
 _atom_site_fract_x
 _atom_site_fract_y
 _atom_site_fract_z
 _atom_site_occupancy
  K  K0  1  0.96799000  0.68750000  0.31378000  1.0
  K  K1  1  0.03201000  0.18750000  0.68622000  1.0
  Li  Li2  1  0.86900000  0.70360000  0.90600000  1.0
  Li  Li3  1  0.13100000  0.20360000  0.09400000  1.0
  Si  Si4  1  0.63085000  0.21910000  0.06411000  1.0
  Si  Si5  1  0.44180000  0.13460000  0.39418000  1.0
  Si  Si6  1  0.55820000  0.63460000  0.60582000  1.0
  Si  Si7  1  0.36915000  0.71910000  0.93589000  1.0
  O  O8  1  0.85310000  0.34850000  0.00630000  1.0
  O  O9  1  0.19220000  0.19160000  0.32920000  1.0
  O  O10  1  0.40480000  0.39670000  0.99970000  1.0
  O  O11  1  0.48090000  0.80340000  0.43890000  1.0
  O  O12  1  0.36940000  0.70830000  0.73630000  1.0
  O  O13  1  0.63060000  0.20830000  0.26370000  1.0
  O  O14  1  0.59520000  0.89670000  0.00030000  1.0
  O  O15  1  0.51910000  0.30340000  0.56110000  1.0
  O  O16  1  0.80780000  0.69160000  0.67080000  1.0
  O  O17  1  0.14690000  0.84850000  0.99370000  1.0
