# generated using pymatgen
data_BaGeO3
_symmetry_space_group_name_H-M   'P 1'
_cell_length_a   4.58000000
_cell_length_b   5.68000000
_cell_length_c   12.76000000
_cell_angle_alpha   90.00000000
_cell_angle_beta   90.00000000
_cell_angle_gamma   90.00000000
_symmetry_Int_Tables_number   1
_chemical_formula_structural   BaGeO3
_chemical_formula_sum   'Ba4 Ge4 O12'
_cell_volume   331.94374400
_cell_formula_units_Z   4
loop_
 _symmetry_equiv_pos_site_id
 _symmetry_equiv_pos_as_xyz
  1  'x, y, z'
loop_
 _atom_site_type_symbol
 _atom_site_label
 _atom_site_symmetry_multiplicity
 _atom_site_fract_x
 _atom_site_fract_y
 _atom_site_fract_z
 _atom_site_occupancy
  Ba  Ba0  1  0.27600000  0.81300000  0.85900000  1.0
  Ba  Ba1  1  0.77600000  0.68700000  0.14100000  1.0
  Ba  Ba2  1  0.72400000  0.31300000  0.64100000  1.0
  Ba  Ba3  1  0.22400000  0.18700000  0.35900000  1.0
  Ge  Ge4  1  0.82500000  0.31000000  0.92500000  1.0
  Ge  Ge5  1  0.32500000  0.19000000  0.07500000  1.0
  Ge  Ge6  1  0.17500000  0.81000000  0.57500000  1.0
  Ge  Ge7  1  0.67500000  0.69000000  0.42500000  1.0
  O  O8  1  0.77000000  0.60600000  0.91000000  1.0
  O  O9  1  0.27000000  0.89400000  0.09000000  1.0
  O  O10  1  0.23000000  0.10600000  0.59000000  1.0
  O  O11  1  0.73000000  0.39400000  0.41000000  1.0
  O  O12  1  0.76200000  0.11500000  0.82600000  1.0
  O  O13  1  0.26200000  0.38500000  0.17400000  1.0
  O  O14  1  0.23800000  0.61500000  0.67400000  1.0
  O  O15  1  0.73800000  0.88500000  0.32600000  1.0
  O  O16  1  0.26700000  0.73000000  0.44000000  1.0
  O  O17  1  0.76700000  0.77000000  0.56000000  1.0
  O  O18  1  0.73300000  0.23000000  0.06000000  1.0
  O  O19  1  0.23300000  0.27000000  0.94000000  1.0
