# generated using pymatgen
data_B(HO)3
_symmetry_space_group_name_H-M   'P 1'
_cell_length_a   6.89331475
_cell_length_b   6.89331475
_cell_length_c   8.96752158
_cell_angle_alpha   90.00000000
_cell_angle_beta   90.00000000
_cell_angle_gamma   120.00000000
_symmetry_Int_Tables_number   1
_chemical_formula_structural   B(HO)3
_chemical_formula_sum   'B6 H18 O18'
_cell_volume   369.02796664
_cell_formula_units_Z   6
loop_
 _symmetry_equiv_pos_site_id
 _symmetry_equiv_pos_as_xyz
  1  'x, y, z'
loop_
 _atom_site_type_symbol
 _atom_site_label
 _atom_site_symmetry_multiplicity
 _atom_site_fract_x
 _atom_site_fract_y
 _atom_site_fract_z
 _atom_site_occupancy
  B  B0  1  0.18783126  0.64440665  0.29462656  1
  B  B1  1  0.45657539  0.81216874  0.62795990  1
  B  B2  1  0.35559335  0.54342461  0.96129323  1
  B  B3  1  0.51914598  0.31059094  0.30923626  1
  B  B4  1  0.79144496  0.48085402  0.64256959  1
  B  B5  1  0.68940906  0.20855504  0.97590293  1
  H  H6  1  0.05935877  0.78965125  0.64072553  1
  H  H7  1  0.14628004  0.91206346  0.30173073  1
  H  H8  1  0.31494340  0.81245873  0.96927096  1
  H  H9  1  0.18754127  0.50248468  0.63593763  1
  H  H10  1  0.08793654  0.23421657  0.96839740  1
  H  H11  1  0.21034875  0.26970752  0.30739220  1
  H  H12  1  0.49751532  0.68505660  0.30260429  1
  H  H13  1  0.73029248  0.94064123  0.97405886  1
  H  H14  1  0.48160013  0.43894120  0.63838295  1
  H  H15  1  0.76578343  0.85371996  0.63506406  1
  H  H16  1  0.38056249  0.16834415  0.96548365  1
  H  H17  1  0.66480731  0.58520590  0.96311263  1
  H  H18  1  0.41479410  0.07960142  0.62977929  1
  H  H19  1  0.78778166  0.61943751  0.29881699  1
  H  H20  1  0.56105880  0.04265893  0.30504962  1
  H  H21  1  0.95734107  0.51839987  0.97171629  1
  H  H22  1  0.83165585  0.21221834  0.63215032  1
  H  H23  1  0.92039858  0.33519269  0.29644596  1
  O  O24  1  0.06122539  0.74594397  0.29350464  1
  O  O25  1  0.32962123  0.91347527  0.62599850  1
  O  O26  1  0.08652473  0.41614595  0.29266516  1
  O  O27  1  0.22920915  0.64564968  0.96682586  1
  O  O28  1  0.41644053  0.77079085  0.30015920  1
  O  O29  1  0.35435032  0.58355947  0.63349253  1
  O  O30  1  0.25405603  0.31528142  0.96017131  1
  O  O31  1  0.29110545  0.18414084  0.31396639  1
  O  O32  1  0.68471858  0.93877461  0.62683798  1
  O  O33  1  0.58385405  0.67037877  0.95933183  1
  O  O34  1  0.62159661  0.53909285  0.30539896  1
  O  O35  1  0.56289742  0.35362045  0.63942238  1
  O  O36  1  0.46090715  0.08250377  0.97206563  1
  O  O37  1  0.89303539  0.70889455  0.64729973  1
  O  O38  1  0.64637955  0.20927698  0.30608905  1
  O  O39  1  0.79072302  0.43710258  0.97275572  1
  O  O40  1  0.91749623  0.37840339  0.63873230  1
  O  O41  1  0.81585916  0.10696461  0.98063306  1
