# generated using pymatgen
data_Y5O4F7
_symmetry_space_group_name_H-M   'P 1'
_cell_length_a   14.09382166
_cell_length_b   14.09382166
_cell_length_c   5.41224040
_cell_angle_alpha   89.80347913
_cell_angle_beta   89.80347913
_cell_angle_gamma   22.64100435
_symmetry_Int_Tables_number   1
_chemical_formula_structural   Y5O4F7
_chemical_formula_sum   'Y10 O8 F14'
_cell_volume   413.85001886
_cell_formula_units_Z   2
loop_
 _symmetry_equiv_pos_site_id
 _symmetry_equiv_pos_as_xyz
  1  'x, y, z'
loop_
 _atom_site_type_symbol
 _atom_site_label
 _atom_site_symmetry_multiplicity
 _atom_site_fract_x
 _atom_site_fract_y
 _atom_site_fract_z
 _atom_site_occupancy
  Y  Y0  1  0.63176902  0.07330149  0.28699249  1
  Y  Y1  1  0.92669851  0.36823098  0.71300751  1
  Y  Y2  1  0.15685158  0.54630590  0.70998520  1
  Y  Y3  1  0.45369410  0.84314842  0.29001480  1
  Y  Y4  1  0.47865301  0.02013547  0.72445622  1
  Y  Y5  1  0.97986453  0.52134699  0.27554378  1
  Y  Y6  1  0.70556647  0.19602741  0.71009087  1
  Y  Y7  1  0.80397259  0.29443353  0.28990913  1
  Y  Y8  1  0.20138967  0.69917832  0.29382344  1
  Y  Y9  1  0.30082168  0.79861033  0.70617656  1
  O  O10  1  0.43139739  0.36833849  0.47747700  1
  O  O11  1  0.63166151  0.56860261  0.52252300  1
  O  O12  1  0.92855079  0.86582993  0.52872577  1
  O  O13  1  0.13417007  0.07144921  0.47127423  1
  O  O14  1  0.49108629  0.50891371  0.50000000  1
  O  O15  1  0.99199546  0.00800454  0.50000000  1
  O  O16  1  0.30589983  0.28929875  0.45946548  1
  O  O17  1  0.71070125  0.69410017  0.54053452  1
  F  F18  1  0.83151351  -0.00428480  0.04926721  1
  F  F19  1  0.00428480  0.16848649  0.95073279  1
  F  F20  1  0.33703830  0.48443224  0.96436643  1
  F  F21  1  0.51556776  0.66296170  0.03563357  1
  F  F22  1  0.60332772  0.89731807  0.11639289  1
  F  F23  1  0.10268193  0.39667228  0.88360711  1
  F  F24  1  0.58986466  0.41013534  0.00000000  1
  F  F25  1  0.09332247  0.90667753  0.00000000  1
  F  F26  1  0.80816668  0.79172196  0.54683898  1
  F  F27  1  0.20827804  0.19183332  0.45316102  1
  F  F28  1  0.49122607  0.16275750  0.90571384  1
  F  F29  1  0.83724250  0.50877393  0.09428616  1
  F  F30  1  0.97241397  0.68007218  0.09100239  1
  F  F31  1  0.31992782  0.02758603  0.90899761  1
