# generated using pymatgen
data_Al4CO4
_symmetry_space_group_name_H-M   'P 1'
_cell_length_a   5.14922249
_cell_length_b   5.14922249
_cell_length_c   9.12100000
_cell_angle_alpha   90.00000000
_cell_angle_beta   90.00000000
_cell_angle_gamma   111.98412609
_symmetry_Int_Tables_number   1
_chemical_formula_structural   Al4CO4
_chemical_formula_sum   'Al8 C2 O8'
_cell_volume   224.25401380
_cell_formula_units_Z   2
loop_
 _symmetry_equiv_pos_site_id
 _symmetry_equiv_pos_as_xyz
  1  'x, y, z'
loop_
 _atom_site_type_symbol
 _atom_site_label
 _atom_site_symmetry_multiplicity
 _atom_site_fract_x
 _atom_site_fract_y
 _atom_site_fract_z
 _atom_site_occupancy
  Al  Al0  1  0.10860000  0.43380000  0.50000000  1.0
  Al  Al1  1  0.89140000  0.56620000  0.00000000  1.0
  Al  Al2  1  0.56620000  0.89140000  0.50000000  1.0
  Al  Al3  1  0.43380000  0.10860000  0.00000000  1.0
  Al  Al4  1  0.39830000  0.60170000  0.20970000  1.0
  Al  Al5  1  0.60170000  0.39830000  0.70970000  1.0
  Al  Al6  1  0.06000000  0.94000000  0.29070000  1.0
  Al  Al7  1  0.94000000  0.06000000  0.79070000  1.0
  C  C8  1  0.19650000  0.80350000  0.11470000  1.0
  C  C9  1  0.80350000  0.19650000  0.61470000  1.0
  O  O10  1  0.17760000  0.30960000  0.32140000  1.0
  O  O11  1  0.82240000  0.69040000  0.82140000  1.0
  O  O12  1  0.69040000  0.82240000  0.32140000  1.0
  O  O13  1  0.30960000  0.17760000  0.82140000  1.0
  O  O14  1  0.55590000  0.44410000  0.09300000  1.0
  O  O15  1  0.44410000  0.55590000  0.59300000  1.0
  O  O16  1  0.80630000  0.19370000  0.94430000  1.0
  O  O17  1  0.19370000  0.80630000  0.44430000  1.0
