# generated using pymatgen
data_Ba7(ClF6)2
_symmetry_space_group_name_H-M   'P 1'
_cell_length_a   10.68440366
_cell_length_b   10.68440366
_cell_length_c   4.18291008
_cell_angle_alpha   90.00000000
_cell_angle_beta   90.00000000
_cell_angle_gamma   120.00000000
_symmetry_Int_Tables_number   1
_chemical_formula_structural   Ba7(ClF6)2
_chemical_formula_sum   'Ba7 Cl2 F12'
_cell_volume   413.53258438
_cell_formula_units_Z   1
loop_
 _symmetry_equiv_pos_site_id
 _symmetry_equiv_pos_as_xyz
  1  'x, y, z'
loop_
 _atom_site_type_symbol
 _atom_site_label
 _atom_site_symmetry_multiplicity
 _atom_site_fract_x
 _atom_site_fract_y
 _atom_site_fract_z
 _atom_site_occupancy
  Ba  Ba0  1  0.95470272  0.21972241  0.50000000  1
  Ba  Ba1  1  0.78027759  0.73498031  0.50000000  1
  Ba  Ba2  1  0.26501969  0.04529728  0.50000000  1
  Ba  Ba3  1  0.07629388  0.63298301  0.00000000  1
  Ba  Ba4  1  0.36701699  0.44331087  -0.00000000  1
  Ba  Ba5  1  0.55668913  0.92370612  0.00000000  1
  Ba  Ba6  1  0.66666667  0.33333333  0.00000000  1
  Cl  Cl7  1  0.33333333  0.66666667  0.50000000  1
  Cl  Cl8  1  -0.00000000  0.00000000  0.00000000  1
  F  F9  1  0.71628028  0.94624999  0.50000000  1
  F  F10  1  0.05375001  0.77003029  0.50000000  1
  F  F11  1  0.22996971  0.28371972  0.50000000  1
  F  F12  1  0.88217566  0.43140091  0.50000000  1
  F  F13  1  0.56859909  0.45077475  0.50000000  1
  F  F14  1  0.54922525  0.11782434  0.50000000  1
  F  F15  1  0.09728468  0.39568768  0.00000000  1
  F  F16  1  0.60431232  0.70159700  0.00000000  1
  F  F17  1  0.29840300  0.90271532  0.00000000  1
  F  F18  1  0.78778882  0.17746706  0.00000000  1
  F  F19  1  0.82253294  0.61032176  0.00000000  1
  F  F20  1  0.38967824  0.21221118  0.00000000  1
