# generated using pymatgen
data_Hg(IO3)2
_symmetry_space_group_name_H-M   'P 1'
_cell_length_a   5.78180000
_cell_length_b   5.60770000
_cell_length_c   8.98490000
_cell_angle_alpha   90.00000000
_cell_angle_beta   102.89000005
_cell_angle_gamma   90.00000000
_symmetry_Int_Tables_number   1
_chemical_formula_structural   Hg(IO3)2
_chemical_formula_sum   'Hg2 I4 O12'
_cell_volume   283.97275113
_cell_formula_units_Z   2
loop_
 _symmetry_equiv_pos_site_id
 _symmetry_equiv_pos_as_xyz
  1  'x, y, z'
loop_
 _atom_site_type_symbol
 _atom_site_label
 _atom_site_symmetry_multiplicity
 _atom_site_fract_x
 _atom_site_fract_y
 _atom_site_fract_z
 _atom_site_occupancy
  Hg  Hg0  1  0.06995000  0.25175000  0.17305000  1.0
  Hg  Hg1  1  0.93005000  0.75175000  0.82695000  1.0
  I  I2  1  0.42326000  0.72972000  0.14913000  1.0
  I  I3  1  0.57674000  0.22972000  0.85087000  1.0
  I  I4  1  0.27243000  0.76425000  0.57293000  1.0
  I  I5  1  0.72757000  0.26425000  0.42707000  1.0
  O  O6  1  0.47440000  0.07580000  0.34740000  1.0
  O  O7  1  0.52560000  0.57580000  0.65260000  1.0
  O  O8  1  0.32990000  0.50230000  0.00430000  1.0
  O  O9  1  0.67010000  0.00230000  0.99570000  1.0
  O  O10  1  0.29340000  0.58070000  0.29370000  1.0
  O  O11  1  0.70660000  0.08070000  0.70630000  1.0
  O  O12  1  0.96570000  0.06220000  0.41280000  1.0
  O  O13  1  0.03430000  0.56220000  0.58720000  1.0
  O  O14  1  0.82960000  0.42310000  0.93390000  1.0
  O  O15  1  0.17040000  0.92310000  0.06610000  1.0
  O  O16  1  0.75890000  0.43110000  0.25790000  1.0
  O  O17  1  0.24110000  0.93110000  0.74210000  1.0
