# generated using pymatgen
data_RbB3O5
_symmetry_space_group_name_H-M   'P 1'
_cell_length_a   5.32808985
_cell_length_b   8.18909511
_cell_length_c   10.20333436
_cell_angle_alpha   90.00000000
_cell_angle_beta   90.00000000
_cell_angle_gamma   90.00000000
_symmetry_Int_Tables_number   1
_chemical_formula_structural   RbB3O5
_chemical_formula_sum   'Rb4 B12 O20'
_cell_volume   445.19427785
_cell_formula_units_Z   4
loop_
 _symmetry_equiv_pos_site_id
 _symmetry_equiv_pos_as_xyz
  1  'x, y, z'
loop_
 _atom_site_type_symbol
 _atom_site_label
 _atom_site_symmetry_multiplicity
 _atom_site_fract_x
 _atom_site_fract_y
 _atom_site_fract_z
 _atom_site_occupancy
  Rb  Rb0  1  0.49701157  0.20632579  0.86931404  1
  Rb  Rb1  1  0.50298843  0.70632579  0.63068596  1
  Rb  Rb2  1  0.00298843  0.79367421  0.36931404  1
  Rb  Rb3  1  -0.00298843  0.29367421  0.13068596  1
  B  B4  1  0.04190286  0.05975671  0.68590696  1
  B  B5  1  0.70022222  0.11289716  0.53704824  1
  B  B6  1  0.79977778  0.88710284  0.03704824  1
  B  B7  1  0.95809714  0.55975671  0.81409304  1
  B  B8  1  0.09869045  0.84667135  0.85192011  1
  B  B9  1  0.54190286  0.44024329  0.31409304  1
  B  B10  1  0.29977778  0.61289716  0.96295176  1
  B  B11  1  0.59869045  0.65332865  0.14807989  1
  B  B12  1  0.90130955  0.34667135  0.64807989  1
  B  B13  1  0.40130955  0.15332865  0.35192011  1
  B  B14  1  0.45809714  0.94024329  0.18590696  1
  B  B15  1  0.20022222  0.38710284  0.46295176  1
  O  O16  1  0.19112504  0.22939099  0.42173092  1
  O  O17  1  0.69112504  0.27060901  0.57826908  1
  O  O18  1  0.36024549  0.49937222  0.40047492  1
  O  O19  1  0.55315431  0.04991149  0.44094081  1
  O  O20  1  0.69968343  0.54632519  0.25103397  1
  O  O21  1  0.94684569  0.95008851  0.94094081  1
  O  O22  1  0.06153849  0.22160873  0.70947335  1
  O  O23  1  0.30031657  0.04632519  0.24896603  1
  O  O24  1  0.86024549  0.00062778  0.59952508  1
  O  O25  1  0.13975451  0.50062778  0.90047492  1
  O  O26  1  0.05315431  0.45008851  0.55905919  1
  O  O27  1  0.44684569  0.54991149  0.05905919  1
  O  O28  1  0.19968343  0.95367481  0.74896603  1
  O  O29  1  0.93846151  0.72160873  0.79052665  1
  O  O30  1  0.43846151  0.77839127  0.20947335  1
  O  O31  1  0.63975451  -0.00062778  0.09952508  1
  O  O32  1  0.56153849  0.27839127  0.29052665  1
  O  O33  1  0.80031657  0.45367481  0.75103397  1
  O  O34  1  0.80887496  0.72939099  0.07826908  1
  O  O35  1  0.30887496  0.77060901  0.92173092  1
