# generated using pymatgen
data_KTa(BO3)2
_symmetry_space_group_name_H-M   'P 1'
_cell_length_a   7.32530000
_cell_length_b   3.84020000
_cell_length_c   9.30400000
_cell_angle_alpha   90.00000000
_cell_angle_beta   90.00000000
_cell_angle_gamma   90.00000000
_symmetry_Int_Tables_number   1
_chemical_formula_structural   KTa(BO3)2
_chemical_formula_sum   'K2 Ta2 B4 O12'
_cell_volume   261.72726113
_cell_formula_units_Z   2
loop_
 _symmetry_equiv_pos_site_id
 _symmetry_equiv_pos_as_xyz
  1  'x, y, z'
loop_
 _atom_site_type_symbol
 _atom_site_label
 _atom_site_symmetry_multiplicity
 _atom_site_fract_x
 _atom_site_fract_y
 _atom_site_fract_z
 _atom_site_occupancy
  K  K0  1  0.00000000  0.52290000  0.85240000  1.0
  K  K1  1  0.50000000  0.47710000  0.35240000  1.0
  Ta  Ta2  1  0.50000000  0.16950000  0.74840000  1.0
  Ta  Ta3  1  0.00000000  0.83050000  0.24840000  1.0
  B  B4  1  0.16250000  0.01970000  0.54440000  1.0
  B  B5  1  0.66250000  0.98030000  0.04440000  1.0
  B  B6  1  0.83750000  0.01970000  0.54440000  1.0
  B  B7  1  0.33750000  0.98030000  0.04440000  1.0
  O  O8  1  0.31260000  0.17130000  0.61640000  1.0
  O  O9  1  0.68740000  0.17130000  0.61640000  1.0
  O  O10  1  0.81260000  0.82870000  0.11640000  1.0
  O  O11  1  0.50000000  0.66600000  0.77140000  1.0
  O  O12  1  0.00000000  0.33400000  0.27140000  1.0
  O  O13  1  0.68220000  0.09920000  0.90900000  1.0
  O  O14  1  0.31780000  0.09920000  0.90900000  1.0
  O  O15  1  0.18740000  0.82870000  0.11640000  1.0
  O  O16  1  0.81780000  0.90080000  0.40900000  1.0
  O  O17  1  0.50000000  0.95410000  0.11500000  1.0
  O  O18  1  0.18220000  0.90080000  0.40900000  1.0
  O  O19  1  0.00000000  0.04590000  0.61500000  1.0
