# generated using pymatgen
data_CsTa(BO3)2
_symmetry_space_group_name_H-M   'P 1'
_cell_length_a   7.54790000
_cell_length_b   3.90640000
_cell_length_c   9.77130000
_cell_angle_alpha   90.00000000
_cell_angle_beta   90.00000000
_cell_angle_gamma   90.00000000
_symmetry_Int_Tables_number   1
_chemical_formula_structural   CsTa(BO3)2
_chemical_formula_sum   'Cs2 Ta2 B4 O12'
_cell_volume   288.10791944
_cell_formula_units_Z   2
loop_
 _symmetry_equiv_pos_site_id
 _symmetry_equiv_pos_as_xyz
  1  'x, y, z'
loop_
 _atom_site_type_symbol
 _atom_site_label
 _atom_site_symmetry_multiplicity
 _atom_site_fract_x
 _atom_site_fract_y
 _atom_site_fract_z
 _atom_site_occupancy
  Cs  Cs0  1  0.00000000  0.52690000  0.38650000  1.0
  Cs  Cs1  1  0.50000000  0.47310000  0.88650000  1.0
  Ta  Ta2  1  0.00000000  0.07900000  0.77530000  1.0
  Ta  Ta3  1  0.50000000  0.92100000  0.27530000  1.0
  B  B4  1  0.33500000  0.02100000  0.56100000  1.0
  B  B5  1  0.16500000  0.97900000  0.06100000  1.0
  B  B6  1  0.83500000  0.97900000  0.06100000  1.0
  B  B7  1  0.66500000  0.02100000  0.56100000  1.0
  O  O8  1  0.19100000  0.04600000  0.63500000  1.0
  O  O9  1  0.30900000  0.95400000  0.13500000  1.0
  O  O10  1  0.69100000  0.95400000  0.13500000  1.0
  O  O11  1  0.80900000  0.04600000  0.63500000  1.0
  O  O12  1  0.82300000  0.03900000  0.92300000  1.0
  O  O13  1  0.67700000  0.96100000  0.42300000  1.0
  O  O14  1  0.32300000  0.96100000  0.42300000  1.0
  O  O15  1  0.17700000  0.03900000  0.92300000  1.0
  O  O16  1  0.00000000  0.56580000  0.78900000  1.0
  O  O17  1  0.50000000  0.43420000  0.28900000  1.0
  O  O18  1  0.00000000  0.98240000  0.12800000  1.0
  O  O19  1  0.50000000  0.01760000  0.62800000  1.0
