# generated using pymatgen
data_Mg(BH4)2
_symmetry_space_group_name_H-M   'P 1'
_cell_length_a   4.30860000
_cell_length_b   6.08780000
_cell_length_c   8.38880000
_cell_angle_alpha   90.00000000
_cell_angle_beta   90.00000000
_cell_angle_gamma   90.00000000
_symmetry_Int_Tables_number   1
_chemical_formula_structural   Mg(BH4)2
_chemical_formula_sum   'Mg2 B4 H16'
_cell_volume   220.03734385
_cell_formula_units_Z   2
loop_
 _symmetry_equiv_pos_site_id
 _symmetry_equiv_pos_as_xyz
  1  'x, y, z'
loop_
 _atom_site_type_symbol
 _atom_site_label
 _atom_site_symmetry_multiplicity
 _atom_site_fract_x
 _atom_site_fract_y
 _atom_site_fract_z
 _atom_site_occupancy
  Mg  Mg0  1  0.00000000  0.69860000  0.50050000  1.0
  Mg  Mg1  1  0.00000000  0.30140000  0.00050000  1.0
  B  B2  1  0.00000000  0.51790000  0.24490000  1.0
  B  B3  1  0.00000000  0.48210000  0.74490000  1.0
  B  B4  1  0.50000000  0.10194000  0.97898000  1.0
  B  B5  1  0.50000000  0.89806000  0.47898000  1.0
  H  H6  1  0.28100000  0.94190000  0.56650000  1.0
  H  H7  1  0.50000000  0.00750000  0.36070000  1.0
  H  H8  1  0.50000000  0.99250000  0.86070000  1.0
  H  H9  1  0.00000000  0.41734000  0.37185000  1.0
  H  H10  1  0.00000000  0.71770000  0.25590000  1.0
  H  H11  1  0.28100000  0.05810000  0.06650000  1.0
  H  H12  1  0.76120000  0.53170000  0.67630000  1.0
  H  H13  1  0.23880000  0.46830000  0.17630000  1.0
  H  H14  1  0.00000000  0.28230000  0.75590000  1.0
  H  H15  1  0.50000000  0.70070000  0.44260000  1.0
  H  H16  1  0.71900000  0.05810000  0.06650000  1.0
  H  H17  1  0.00000000  0.58266000  0.87185000  1.0
  H  H18  1  0.71900000  0.94190000  0.56650000  1.0
  H  H19  1  0.23880000  0.53170000  0.67630000  1.0
  H  H20  1  0.76120000  0.46830000  0.17630000  1.0
  H  H21  1  0.50000000  0.29930000  0.94260000  1.0
