# generated using pymatgen
data_YAl3(BO3)4
_symmetry_space_group_name_H-M   'P 1'
_cell_length_a   5.88254710
_cell_length_b   5.88254710
_cell_length_c   5.88254710
_cell_angle_alpha   104.34839732
_cell_angle_beta   104.34839732
_cell_angle_gamma   104.34839732
_symmetry_Int_Tables_number   1
_chemical_formula_structural   YAl3(BO3)4
_chemical_formula_sum   'Y1 Al3 B4 O12'
_cell_volume   180.39305375
_cell_formula_units_Z   1
loop_
 _symmetry_equiv_pos_site_id
 _symmetry_equiv_pos_as_xyz
  1  'x, y, z'
loop_
 _atom_site_type_symbol
 _atom_site_label
 _atom_site_symmetry_multiplicity
 _atom_site_fract_x
 _atom_site_fract_y
 _atom_site_fract_z
 _atom_site_occupancy
  Y  Y19  1  0.00000000  0.00000000  0.00000000  1.0
  Al  Al0  1  0.00000000  0.55400000  0.44600000  1.0
  Al  Al1  1  0.55400000  0.44600000  0.00000000  1.0
  Al  Al2  1  0.44600000  0.00000000  0.55400000  1.0
  B  B3  1  0.50000000  0.95400000  0.04600000  1.0
  B  B4  1  0.95400000  0.04600000  0.50000000  1.0
  B  B5  1  0.04600000  0.50000000  0.95400000  1.0
  B  B6  1  0.50000000  0.50000000  0.50000000  1.0
  O  O7  1  0.36700000  0.96400000  0.21400000  1.0
  O  O8  1  0.03600000  0.63300000  0.78600000  1.0
  O  O9  1  0.78600000  0.03600000  0.63300000  1.0
  O  O10  1  0.63300000  0.78600000  0.03600000  1.0
  O  O11  1  0.65000000  0.50000000  0.35000000  1.0
  O  O12  1  0.35000000  0.65000000  0.50000000  1.0
  O  O13  1  0.50000000  0.35000000  0.65000000  1.0
  O  O14  1  0.91100000  0.50000000  0.08900000  1.0
  O  O15  1  0.08900000  0.91100000  0.50000000  1.0
  O  O16  1  0.50000000  0.08900000  0.91100000  1.0
  O  O17  1  0.21400000  0.36700000  0.96400000  1.0
  O  O18  1  0.96400000  0.21400000  0.36700000  1.0
