# generated using pymatgen
data_CsNb(BO3)2
_symmetry_space_group_name_H-M   'P 1'
_cell_length_a   7.52700000
_cell_length_b   3.98800000
_cell_length_c   9.71700000
_cell_angle_alpha   90.00000000
_cell_angle_beta   90.00000000
_cell_angle_gamma   90.00000000
_symmetry_Int_Tables_number   1
_chemical_formula_structural   CsNb(BO3)2
_chemical_formula_sum   'Cs2 Nb2 B4 O12'
_cell_volume   291.68175769
_cell_formula_units_Z   2
loop_
 _symmetry_equiv_pos_site_id
 _symmetry_equiv_pos_as_xyz
  1  'x, y, z'
loop_
 _atom_site_type_symbol
 _atom_site_label
 _atom_site_symmetry_multiplicity
 _atom_site_fract_x
 _atom_site_fract_y
 _atom_site_fract_z
 _atom_site_occupancy
  Cs  Cs0  1  0.50000000  0.42700000  0.72620000  1.0
  Cs  Cs1  1  0.00000000  0.57300000  0.22620000  1.0
  Nb  Nb2  1  0.50000000  0.11480000  0.33490000  1.0
  Nb  Nb3  1  0.00000000  0.88520000  0.83490000  1.0
  B  B4  1  0.66330000  0.99100000  0.04779000  1.0
  B  B5  1  0.83670000  0.00900000  0.54779000  1.0
  B  B6  1  0.16330000  0.00900000  0.54779000  1.0
  B  B7  1  0.33670000  0.99100000  0.04779000  1.0
  O  O8  1  0.80980000  0.93700000  0.95850000  1.0
  O  O9  1  0.69020000  0.06300000  0.45850000  1.0
  O  O10  1  0.30980000  0.06300000  0.45850000  1.0
  O  O11  1  0.19020000  0.93700000  0.95850000  1.0
  O  O12  1  0.82180000  0.94600000  0.68300000  1.0
  O  O13  1  0.67820000  0.05400000  0.18300000  1.0
  O  O14  1  0.32180000  0.05400000  0.18300000  1.0
  O  O15  1  0.17820000  0.94600000  0.68300000  1.0
  O  O16  1  0.00000000  0.44000000  0.83580000  1.0
  O  O17  1  0.50000000  0.56000000  0.33580000  1.0
  O  O18  1  0.00000000  0.03500000  0.48090000  1.0
  O  O19  1  0.50000000  0.96500000  0.98090000  1.0
