# generated using pymatgen
data_Y3TaO7
_symmetry_space_group_name_H-M   'P 1'
_cell_length_a   6.41993162
_cell_length_b   6.41993162
_cell_length_c   7.45220000
_cell_angle_alpha   90.00000000
_cell_angle_beta   90.00000000
_cell_angle_gamma   109.35530008
_symmetry_Int_Tables_number   1
_chemical_formula_structural   Y3TaO7
_chemical_formula_sum   'Y6 Ta2 O14'
_cell_volume   289.78686725
_cell_formula_units_Z   2
loop_
 _symmetry_equiv_pos_site_id
 _symmetry_equiv_pos_as_xyz
  1  'x, y, z'
loop_
 _atom_site_type_symbol
 _atom_site_label
 _atom_site_symmetry_multiplicity
 _atom_site_fract_x
 _atom_site_fract_y
 _atom_site_fract_z
 _atom_site_occupancy
  Y  Y16  1  0.00190000  0.47390000  0.25000000  1.0
  Y  Y17  1  0.99810000  0.52610000  0.75000000  1.0
  Y  Y18  1  0.47390000  0.00190000  0.75000000  1.0
  Y  Y19  1  0.52610000  0.99810000  0.25000000  1.0
  Y  Y20  1  0.49400000  0.49400000  0.00000000  1.0
  Y  Y21  1  0.50600000  0.50600000  0.50000000  1.0
  Ta  Ta14  1  0.00000000  0.00000000  0.00000000  1.0
  Ta  Ta15  1  0.00000000  0.00000000  0.50000000  1.0
  O  O0  1  0.07700000  0.92300000  0.75000000  1.0
  O  O1  1  0.92300000  0.07700000  0.25000000  1.0
  O  O2  1  0.64900000  0.35100000  0.25000000  1.0
  O  O3  1  0.35100000  0.64900000  0.75000000  1.0
  O  O4  1  0.63000000  0.37000000  0.75000000  1.0
  O  O5  1  0.37000000  0.63000000  0.25000000  1.0
  O  O6  1  0.66500000  0.88100000  0.95800000  1.0
  O  O7  1  0.33500000  0.11900000  0.45800000  1.0
  O  O8  1  0.67200000  0.95800000  0.52800000  1.0
  O  O9  1  0.32800000  0.04200000  0.02800000  1.0
  O  O10  1  0.95800000  0.67200000  0.47200000  1.0
  O  O11  1  0.04200000  0.32800000  0.97200000  1.0
  O  O12  1  0.11900000  0.33500000  0.54200000  1.0
  O  O13  1  0.88100000  0.66500000  0.04200000  1.0
