# generated using pymatgen
data_K3B6BrO10
_symmetry_space_group_name_H-M   'P 1'
_cell_length_a   6.54989242
_cell_length_b   6.54989242
_cell_length_c   6.54989242
_cell_angle_alpha   101.21869576
_cell_angle_beta   101.21869576
_cell_angle_gamma   101.21869576
_symmetry_Int_Tables_number   1
_chemical_formula_structural   K3B6BrO10
_chemical_formula_sum   'K3 B6 Br1 O10'
_cell_volume   262.35561133
_cell_formula_units_Z   1
loop_
 _symmetry_equiv_pos_site_id
 _symmetry_equiv_pos_as_xyz
  1  'x, y, z'
loop_
 _atom_site_type_symbol
 _atom_site_label
 _atom_site_symmetry_multiplicity
 _atom_site_fract_x
 _atom_site_fract_y
 _atom_site_fract_z
 _atom_site_occupancy
  K  K7  1  0.07120000  0.52960000  0.07120000  1.0
  K  K8  1  0.52960000  0.07120000  0.07120000  1.0
  K  K9  1  0.07120000  0.07120000  0.52960000  1.0
  B  B0  1  0.63940000  0.37720000  0.63940000  1.0
  B  B1  1  0.37720000  0.63940000  0.63940000  1.0
  B  B2  1  0.63940000  0.63940000  0.37720000  1.0
  B  B3  1  0.97100000  0.51870000  0.51870000  1.0
  B  B4  1  0.51870000  0.97100000  0.51870000  1.0
  B  B5  1  0.51870000  0.51870000  0.97100000  1.0
  Br  Br6  1  0.00000000  0.00000000  0.00000000  1.0
  O  O10  1  0.51125000  0.51125000  0.17470000  1.0
  O  O11  1  0.56400000  0.56400000  0.56400000  1.0
  O  O12  1  0.17470000  0.51125000  0.51125000  1.0
  O  O13  1  0.51125000  0.17470000  0.51125000  1.0
  O  O14  1  0.63510000  0.40050000  0.86640000  1.0
  O  O15  1  0.86640000  0.63510000  0.40050000  1.0
  O  O16  1  0.40050000  0.86640000  0.63510000  1.0
  O  O17  1  0.86640000  0.40050000  0.63510000  1.0
  O  O18  1  0.63510000  0.86640000  0.40050000  1.0
  O  O19  1  0.40050000  0.63510000  0.86640000  1.0
