# generated using pymatgen
data_Ba4Br6O
_symmetry_space_group_name_H-M   'P 1'
_cell_length_a   10.30100014
_cell_length_b   10.30100014
_cell_length_c   7.85920000
_cell_angle_alpha   90.00000000
_cell_angle_beta   90.00000000
_cell_angle_gamma   120.00000000
_symmetry_Int_Tables_number   1
_chemical_formula_structural   Ba4Br6O
_chemical_formula_sum   'Ba8 Br12 O2'
_cell_volume   722.21708601
_cell_formula_units_Z   2
loop_
 _symmetry_equiv_pos_site_id
 _symmetry_equiv_pos_as_xyz
  1  'x, y, z'
loop_
 _atom_site_type_symbol
 _atom_site_label
 _atom_site_symmetry_multiplicity
 _atom_site_fract_x
 _atom_site_fract_y
 _atom_site_fract_z
 _atom_site_occupancy
  Ba  Ba0  1  0.19868000  0.80132000  0.00016000  1.0
  Ba  Ba1  1  0.33333333  0.66666667  0.41868000  1.0
  Ba  Ba2  1  0.60264000  0.80132000  0.00016000  1.0
  Ba  Ba3  1  0.80132000  0.19868000  0.50016000  1.0
  Ba  Ba4  1  0.39736000  0.19868000  0.50016000  1.0
  Ba  Ba5  1  0.80132000  0.60264000  0.50016000  1.0
  Ba  Ba6  1  0.66666667  0.33333333  0.91868000  1.0
  Ba  Ba7  1  0.19868000  0.39736000  0.00016000  1.0
  Br  Br8  1  0.71665900  0.85832950  0.39436000  1.0
  Br  Br9  1  0.53008000  0.46992000  0.20781000  1.0
  Br  Br10  1  0.14167050  0.28334100  0.39436000  1.0
  Br  Br11  1  0.28334100  0.14167050  0.89436000  1.0
  Br  Br12  1  0.85832950  0.71665900  0.89436000  1.0
  Br  Br13  1  0.85832950  0.14167050  0.89436000  1.0
  Br  Br14  1  0.06016000  0.53008000  0.70781000  1.0
  Br  Br15  1  0.46992000  0.93984000  0.70781000  1.0
  Br  Br16  1  0.14167050  0.85832950  0.39436000  1.0
  Br  Br17  1  0.53008000  0.06016000  0.20781000  1.0
  Br  Br18  1  0.46992000  0.53008000  0.70781000  1.0
  Br  Br19  1  0.93984000  0.46992000  0.20781000  1.0
  O  O20  1  0.33333333  0.66666667  0.09990000  1.0
  O  O21  1  0.66666667  0.33333333  0.59990000  1.0
