# generated using pymatgen
data_Ag3Ge5P6
_symmetry_space_group_name_H-M   'P 1'
_cell_length_a   8.96751552
_cell_length_b   8.96751552
_cell_length_c   8.96751552
_cell_angle_alpha   109.47122063
_cell_angle_beta   109.47122063
_cell_angle_gamma   109.47122063
_symmetry_Int_Tables_number   1
_chemical_formula_structural   Ag3Ge5P6
_chemical_formula_sum   'Ag6 Ge10 P12'
_cell_volume   555.12977308
_cell_formula_units_Z   2
loop_
 _symmetry_equiv_pos_site_id
 _symmetry_equiv_pos_as_xyz
  1  'x, y, z'
loop_
 _atom_site_type_symbol
 _atom_site_label
 _atom_site_symmetry_multiplicity
 _atom_site_fract_x
 _atom_site_fract_y
 _atom_site_fract_z
 _atom_site_occupancy
  Ag  Ag0  1  0.80432525  -0.00000000  0.80432525  1
  Ag  Ag1  1  0.19567476  0.19567476  -0.00000000  1
  Ag  Ag2  1  0.80432525  0.80432525  -0.00000000  1
  Ag  Ag3  1  0.00000000  0.19567476  0.19567476  1
  Ag  Ag4  1  0.00000000  0.80432525  0.80432525  1
  Ag  Ag5  1  0.19567476  0.00000000  0.19567476  1
  Ge  Ge6  1  0.50000000  0.25000000  0.75000000  1
  Ge  Ge7  1  0.75000000  0.25000000  0.50000000  1
  Ge  Ge8  1  0.25000000  0.75000000  0.50000000  1
  Ge  Ge9  1  0.75000000  0.50000000  0.25000000  1
  Ge  Ge10  1  0.42453332  0.42453332  0.42453332  1
  Ge  Ge11  1  -0.00000000  0.57546668  -0.00000000  1
  Ge  Ge12  1  0.57546668  -0.00000000  0.00000000  1
  Ge  Ge13  1  -0.00000000  0.00000000  0.57546668  1
  Ge  Ge14  1  0.25000000  0.50000000  0.75000000  1
  Ge  Ge15  1  0.50000000  0.75000000  0.25000000  1
  P  P16  1  0.51079462  0.51079462  0.74335148  1
  P  P17  1  0.00000000  0.23255686  0.48920538  1
  P  P18  1  0.23255686  -0.00000000  0.48920538  1
  P  P19  1  0.76744314  0.25664852  0.76744314  1
  P  P20  1  0.25664852  0.76744314  0.76744314  1
  P  P21  1  0.74335148  0.51079462  0.51079462  1
  P  P22  1  0.51079462  0.74335148  0.51079462  1
  P  P23  1  0.23255686  0.48920538  -0.00000000  1
  P  P24  1  0.48920538  0.23255686  -0.00000000  1
  P  P25  1  0.76744314  0.76744314  0.25664852  1
  P  P26  1  0.48920538  -0.00000000  0.23255686  1
  P  P27  1  0.00000000  0.48920538  0.23255686  1
