# generated using pymatgen
data_Sr4Br6O
_symmetry_space_group_name_H-M   'P 1'
_cell_length_a   9.82200021
_cell_length_b   9.82200021
_cell_length_c   7.50410000
_cell_angle_alpha   90.00000000
_cell_angle_beta   90.00000000
_cell_angle_gamma   120.00000000
_symmetry_Int_Tables_number   1
_chemical_formula_structural   Sr4Br6O
_chemical_formula_sum   'Sr8 Br12 O2'
_cell_volume   626.94453739
_cell_formula_units_Z   2
loop_
 _symmetry_equiv_pos_site_id
 _symmetry_equiv_pos_as_xyz
  1  'x, y, z'
loop_
 _atom_site_type_symbol
 _atom_site_label
 _atom_site_symmetry_multiplicity
 _atom_site_fract_x
 _atom_site_fract_y
 _atom_site_fract_z
 _atom_site_occupancy
  Sr  Sr0  1  0.80002950  0.60005900  0.99841000  1.0
  Sr  Sr1  1  0.39994100  0.19997050  0.99841000  1.0
  Sr  Sr2  1  0.66666667  0.33333333  0.58330000  1.0
  Sr  Sr3  1  0.19997050  0.80002950  0.49841000  1.0
  Sr  Sr4  1  0.60005900  0.80002950  0.49841000  1.0
  Sr  Sr5  1  0.19997050  0.39994100  0.49841000  1.0
  Sr  Sr6  1  0.33333333  0.66666667  0.08330000  1.0
  Sr  Sr7  1  0.80002950  0.19997050  0.99841000  1.0
  Br  Br8  1  0.53371950  0.06743900  0.29416000  1.0
  Br  Br9  1  0.46628050  0.93256100  0.79416000  1.0
  Br  Br10  1  0.53371950  0.46628050  0.29416000  1.0
  Br  Br11  1  0.13755000  0.86245000  0.11183000  1.0
  Br  Br12  1  0.72490000  0.86245000  0.11183000  1.0
  Br  Br13  1  0.86245000  0.72490000  0.61183000  1.0
  Br  Br14  1  0.06743900  0.53371950  0.79416000  1.0
  Br  Br15  1  0.93256100  0.46628050  0.29416000  1.0
  Br  Br16  1  0.27510000  0.13755000  0.61183000  1.0
  Br  Br17  1  0.13755000  0.27510000  0.11183000  1.0
  Br  Br18  1  0.46628050  0.53371950  0.79416000  1.0
  Br  Br19  1  0.86245000  0.13755000  0.61183000  1.0
  O  O20  1  0.33333333  0.66666667  0.39880000  1.0
  O  O21  1  0.66666667  0.33333333  0.89880000  1.0
