# generated using pymatgen
data_YZrF7
_symmetry_space_group_name_H-M   'P 1'
_cell_length_a   5.70044832
_cell_length_b   6.02989202
_cell_length_c   8.19847575
_cell_angle_alpha   102.60446009
_cell_angle_beta   90.00000000
_cell_angle_gamma   90.00000000
_symmetry_Int_Tables_number   1
_chemical_formula_structural   YZrF7
_chemical_formula_sum   'Y2 Zr2 F14'
_cell_volume   275.01531731
_cell_formula_units_Z   2
loop_
 _symmetry_equiv_pos_site_id
 _symmetry_equiv_pos_as_xyz
  1  'x, y, z'
loop_
 _atom_site_type_symbol
 _atom_site_label
 _atom_site_symmetry_multiplicity
 _atom_site_fract_x
 _atom_site_fract_y
 _atom_site_fract_z
 _atom_site_occupancy
  Y  Y0  1  0.69827557  0.65482189  0.68616362  1
  Y  Y1  1  0.19827557  0.34517811  0.31383638  1
  Zr  Zr2  1  0.70776282  0.81214687  0.22544267  1
  Zr  Zr3  1  0.20776282  0.18785313  0.77455733  1
  F  F4  1  0.89327725  0.45801697  0.47685853  1
  F  F5  1  0.39327725  0.54198303  0.52314147  1
  F  F6  1  0.43089060  0.92729290  0.76976730  1
  F  F7  1  0.93089060  0.07270710  0.23023270  1
  F  F8  1  0.95167118  0.95119254  0.75910642  1
  F  F9  1  0.45167118  0.04880746  0.24089358  1
  F  F10  1  0.99181384  0.45594164  0.78872836  1
  F  F11  1  0.49181384  0.54405836  0.21127164  1
  F  F12  1  0.69797181  0.75615402  0.97532126  1
  F  F13  1  0.19797181  0.24384598  0.02467874  1
  F  F14  1  0.70354641  0.86588219  0.47673245  1
  F  F15  1  0.20354641  0.13411781  0.52326755  1
  F  F16  1  0.50115252  0.37985091  0.78336696  1
  F  F17  1  0.00115252  0.62014909  0.21663304  1
