# generated using pymatgen
data_Ba4Cl6O
_symmetry_space_group_name_H-M   'P 1'
_cell_length_a   9.97000000
_cell_length_b   9.97000000
_cell_length_c   7.49000000
_cell_angle_alpha   90.00000000
_cell_angle_beta   90.00000000
_cell_angle_gamma   120.00000000
_symmetry_Int_Tables_number   1
_chemical_formula_structural   Ba4Cl6O
_chemical_formula_sum   'Ba8 Cl12 O2'
_cell_volume   644.76694715
_cell_formula_units_Z   2
loop_
 _symmetry_equiv_pos_site_id
 _symmetry_equiv_pos_as_xyz
  1  'x, y, z'
loop_
 _atom_site_type_symbol
 _atom_site_label
 _atom_site_symmetry_multiplicity
 _atom_site_fract_x
 _atom_site_fract_y
 _atom_site_fract_z
 _atom_site_occupancy
  Ba  Ba0  1  0.66666667  0.33333333  0.93660000  1.0
  Ba  Ba1  1  0.33333333  0.66666667  0.43660000  1.0
  Ba  Ba2  1  0.80450000  0.60900001  0.50000000  1.0
  Ba  Ba3  1  0.19549999  0.80450000  0.00000000  1.0
  Ba  Ba4  1  0.60900001  0.80450001  0.00000000  1.0
  Ba  Ba5  1  0.39099999  0.19549999  0.50000000  1.0
  Ba  Ba6  1  0.80450001  0.19550000  0.50000000  1.0
  Ba  Ba7  1  0.19550000  0.39099999  0.00000000  1.0
  Cl  Cl8  1  0.52960000  0.47040000  0.20440000  1.0
  Cl  Cl9  1  0.05920000  0.52960000  0.70440000  1.0
  Cl  Cl10  1  0.47040000  0.94080000  0.70440000  1.0
  Cl  Cl11  1  0.52960000  0.05920000  0.20440000  1.0
  Cl  Cl12  1  0.94080000  0.47040000  0.20440000  1.0
  Cl  Cl13  1  0.47040000  0.52960000  0.70440000  1.0
  Cl  Cl14  1  0.14560001  0.29120001  0.39260000  1.0
  Cl  Cl15  1  0.85439999  0.14560001  0.89260000  1.0
  Cl  Cl16  1  0.29120001  0.14560001  0.89260000  1.0
  Cl  Cl17  1  0.70879999  0.85439999  0.39260000  1.0
  Cl  Cl18  1  0.14560001  0.85439999  0.39260000  1.0
  Cl  Cl19  1  0.85439999  0.70879999  0.89260000  1.0
  O  O20  1  0.66666667  0.33333333  0.59750000  1.0
  O  O21  1  0.33333333  0.66666667  0.09750000  1.0
