# generated using pymatgen
data_GeI2
_symmetry_space_group_name_H-M   'P 1'
_cell_length_a   4.26110109
_cell_length_b   4.26140565
_cell_length_c   7.60510227
_cell_angle_alpha   89.99009340
_cell_angle_beta   73.73676629
_cell_angle_gamma   60.00250485
_symmetry_Int_Tables_number   1
_chemical_formula_structural   GeI2
_chemical_formula_sum   'Ge1 I2'
_cell_volume   113.17586227
_cell_formula_units_Z   1
loop_
 _symmetry_equiv_pos_site_id
 _symmetry_equiv_pos_as_xyz
  1  'x, y, z'
loop_
 _atom_site_type_symbol
 _atom_site_label
 _atom_site_symmetry_multiplicity
 _atom_site_fract_x
 _atom_site_fract_y
 _atom_site_fract_z
 _atom_site_occupancy
  Ge  Ge0  1  0.99969195  0.99994076  0.00003239  1
  I  I1  1  0.50533825  0.74740242  0.24247077  1
  I  I2  1  0.49496947  0.25265682  0.75749683  1
