# generated using pymatgen
data_BiTeO4
_symmetry_space_group_name_H-M   'P 1'
_cell_length_a   5.65225000
_cell_length_b   7.06664520
_cell_length_c   10.06693767
_cell_angle_alpha   72.82188975
_cell_angle_beta   73.69602261
_cell_angle_gamma   66.42653730
_symmetry_Int_Tables_number   1
_chemical_formula_structural   BiTeO4
_chemical_formula_sum   'Bi4 Te4 O16'
_cell_volume   345.97714184
_cell_formula_units_Z   4
loop_
 _symmetry_equiv_pos_site_id
 _symmetry_equiv_pos_as_xyz
  1  'x, y, z'
loop_
 _atom_site_type_symbol
 _atom_site_label
 _atom_site_symmetry_multiplicity
 _atom_site_fract_x
 _atom_site_fract_y
 _atom_site_fract_z
 _atom_site_occupancy
  Bi  Bi0  1  0.31840600  0.60628000  0.84585900  1.0
  Bi  Bi1  1  0.95868700  0.74317200  0.25752600  1.0
  Bi  Bi2  1  0.04061500  0.24317200  0.75752600  1.0
  Bi  Bi3  1  0.22945500  0.10628000  0.34585900  1.0
  Te  Te20  1  0.80635200  0.92821400  0.61552400  1.0
  Te  Te21  1  0.50574500  0.50591700  0.49682300  1.0
  Te  Te22  1  0.64991000  0.42821400  0.11552400  1.0
  Te  Te23  1  0.49151500  0.00591700  0.99682300  1.0
  O  O4  1  0.34363100  0.91959900  0.88121300  1.0
  O  O5  1  0.91386200  0.95961800  0.40817600  1.0
  O  O6  1  0.20693700  0.98979700  0.15839600  1.0
  O  O7  1  0.52178500  0.78900500  0.41783200  1.0
  O  O8  1  0.15562300  0.58780600  0.61695500  1.0
  O  O9  1  0.71834400  0.45961800  0.90817600  1.0
  O  O10  1  0.70591800  0.70422700  0.08073100  1.0
  O  O11  1  0.64487000  0.48979700  0.65839600  1.0
  O  O12  1  0.35941200  0.50425900  0.34313900  1.0
  O  O13  1  0.27137800  0.28900500  0.91783200  1.0
  O  O14  1  0.28924300  0.53454600  0.09622400  1.0
  O  O15  1  0.85555700  0.41959900  0.38121300  1.0
  O  O16  1  0.50912400  0.20422700  0.58073100  1.0
  O  O17  1  0.79319000  0.00425900  0.84313900  1.0
  O  O18  1  0.07998700  0.03454600  0.59622400  1.0
  O  O19  1  0.63961600  0.08780600  0.11695500  1.0
