# generated using pymatgen
data_SrTl2(PO3)4
_symmetry_space_group_name_H-M   'P 1'
_cell_length_a   7.50900975
_cell_length_b   7.50900975
_cell_length_c   7.50900975
_cell_angle_alpha   118.62216137
_cell_angle_beta   118.62216137
_cell_angle_gamma   92.40352759
_symmetry_Int_Tables_number   1
_chemical_formula_structural   SrTl2(PO3)4
_chemical_formula_sum   'Sr1 Tl2 P4 O12'
_cell_volume   305.33144550
_cell_formula_units_Z   1
loop_
 _symmetry_equiv_pos_site_id
 _symmetry_equiv_pos_as_xyz
  1  'x, y, z'
loop_
 _atom_site_type_symbol
 _atom_site_label
 _atom_site_symmetry_multiplicity
 _atom_site_fract_x
 _atom_site_fract_y
 _atom_site_fract_z
 _atom_site_occupancy
  Sr  Sr0  1  0.00000000  0.00000000  0.00000000  1
  Tl  Tl1  1  0.42110300  0.92110300  0.50000000  1
  Tl  Tl2  1  0.07889700  0.57889700  0.50000000  1
  P  P3  1  0.56362925  0.00151825  0.12935450  1
  P  P4  1  0.87216375  0.43427475  0.87064550  1
  P  P5  1  0.56572525  0.43637075  0.43788900  1
  P  P6  1  0.99848175  0.12783625  0.56211100  1
  O  O7  1  0.62141850  0.26119775  0.25430875  1
  O  O8  1  0.00688900  0.36710975  0.74569125  1
  O  O9  1  0.63289025  0.37858150  0.63977925  1
  O  O10  1  0.73880225  0.99311100  0.36022075  1
  O  O11  1  0.61160325  0.91582400  0.93796775  1
  O  O12  1  0.97785625  0.67363550  0.06203225  1
  O  O13  1  0.32636450  0.38839675  0.30422075  1
  O  O14  1  0.08417600  0.02214375  0.69577925  1
  O  O15  1  0.34567800  0.90180700  0.06604200  1
  O  O16  1  0.83576500  0.27963600  0.93395800  1
  O  O17  1  0.72036400  0.65432200  0.55612900  1
  O  O18  1  0.09819300  0.16423500  0.44387100  1
