# generated using pymatgen
data_Na3Mo(OF)3
_symmetry_space_group_name_H-M   'P 1'
_cell_length_a   5.95290159
_cell_length_b   5.95290159
_cell_length_c   5.95290159
_cell_angle_alpha   57.14258266
_cell_angle_beta   57.14258266
_cell_angle_gamma   57.14258266
_symmetry_Int_Tables_number   1
_chemical_formula_structural   Na3Mo(OF)3
_chemical_formula_sum   'Na3 Mo1 O3 F3'
_cell_volume   139.34550772
_cell_formula_units_Z   1
loop_
 _symmetry_equiv_pos_site_id
 _symmetry_equiv_pos_as_xyz
  1  'x, y, z'
loop_
 _atom_site_type_symbol
 _atom_site_label
 _atom_site_symmetry_multiplicity
 _atom_site_fract_x
 _atom_site_fract_y
 _atom_site_fract_z
 _atom_site_occupancy
  Na  Na0  1  0.77342533  0.77342533  0.77342533  1
  Na  Na1  1  0.49077300  0.49077300  0.49077300  1
  Na  Na2  1  0.27197533  0.27197533  0.27197533  1
  Mo  Mo3  1  0.99886300  0.99886300  0.99886300  1
  O  O4  1  0.30963233  0.74774933  0.09289800  1
  O  O5  1  0.09289800  0.30963233  0.74774933  1
  O  O6  1  0.74774933  0.09289800  0.30963233  1
  F  F7  1  0.64163133  0.17484033  0.87241167  1
  F  F8  1  0.17484033  0.87241167  0.64163133  1
  F  F9  1  0.87241167  0.64163133  0.17484033  1
