# generated using pymatgen
data_LiScP2O7
_symmetry_space_group_name_H-M   'P 1'
_cell_length_a   4.94000000
_cell_length_b   8.39300000
_cell_length_c   7.02100000
_cell_angle_alpha   90.00000000
_cell_angle_beta   109.71000002
_cell_angle_gamma   90.00000000
_symmetry_Int_Tables_number   1
_chemical_formula_structural   LiScP2O7
_chemical_formula_sum   'Li2 Sc2 P4 O14'
_cell_volume   274.04553766
_cell_formula_units_Z   2
loop_
 _symmetry_equiv_pos_site_id
 _symmetry_equiv_pos_as_xyz
  1  'x, y, z'
loop_
 _atom_site_type_symbol
 _atom_site_label
 _atom_site_symmetry_multiplicity
 _atom_site_fract_x
 _atom_site_fract_y
 _atom_site_fract_z
 _atom_site_occupancy
  Li  Li0  1  0.80400000  0.63500000  0.33700000  1.0
  Li  Li1  1  0.19600000  0.13500000  0.66300000  1.0
  Sc  Sc2  1  0.79100000  0.00000000  0.26800000  1.0
  Sc  Sc3  1  0.20900000  0.50000000  0.73200000  1.0
  P  P4  1  0.40800000  0.82100000  0.52700000  1.0
  P  P5  1  0.79500000  0.71000000  0.92000000  1.0
  P  P6  1  0.20500000  0.21000000  0.08000000  1.0
  P  P7  1  0.59200000  0.32100000  0.47300000  1.0
  O  O8  1  0.07500000  0.68200000  0.88500000  1.0
  O  O9  1  0.61600000  0.85900000  0.76800000  1.0
  O  O10  1  0.38400000  0.35900000  0.23200000  1.0
  O  O11  1  0.80600000  0.46500000  0.50300000  1.0
  O  O12  1  0.19400000  0.96500000  0.49700000  1.0
  O  O13  1  0.40000000  0.31000000  0.59900000  1.0
  O  O14  1  0.88400000  0.80100000  0.13000000  1.0
  O  O15  1  0.11600000  0.30100000  0.87000000  1.0
  O  O16  1  0.60000000  0.81000000  0.40100000  1.0
  O  O17  1  0.76200000  0.15900000  0.49600000  1.0
  O  O18  1  0.61200000  0.56500000  0.92800000  1.0
  O  O19  1  0.23800000  0.65900000  0.50400000  1.0
  O  O20  1  0.38800000  0.06500000  0.07200000  1.0
  O  O21  1  0.92500000  0.18200000  0.11500000  1.0
