# generated using pymatgen
data_NaAlCl4
_symmetry_space_group_name_H-M   'P 1'
_cell_length_a   6.16500000
_cell_length_b   9.88700000
_cell_length_c   10.31400000
_cell_angle_alpha   90.00000000
_cell_angle_beta   90.00000000
_cell_angle_gamma   90.00000000
_symmetry_Int_Tables_number   1
_chemical_formula_structural   NaAlCl4
_chemical_formula_sum   'Na4 Al4 Cl16'
_cell_volume   628.67290347
_cell_formula_units_Z   4
loop_
 _symmetry_equiv_pos_site_id
 _symmetry_equiv_pos_as_xyz
  1  'x, y, z'
loop_
 _atom_site_type_symbol
 _atom_site_label
 _atom_site_symmetry_multiplicity
 _atom_site_fract_x
 _atom_site_fract_y
 _atom_site_fract_z
 _atom_site_occupancy
  Na  Na0  1  0.06110000  0.53680000  0.62480000  1.0
  Na  Na1  1  0.56110000  0.96320000  0.37520000  1.0
  Na  Na2  1  0.93890000  0.03680000  0.87520000  1.0
  Na  Na3  1  0.43890000  0.46320000  0.12480000  1.0
  Al  Al4  1  0.54310000  0.26420000  0.71220000  1.0
  Al  Al5  1  0.04310000  0.23580000  0.28780000  1.0
  Al  Al6  1  0.45690000  0.76420000  0.78780000  1.0
  Al  Al7  1  0.95690000  0.73580000  0.21220000  1.0
  Cl  Cl8  1  0.19760000  0.25870000  0.71780000  1.0
  Cl  Cl9  1  0.69760000  0.24130000  0.28220000  1.0
  Cl  Cl10  1  0.80240000  0.75870000  0.78220000  1.0
  Cl  Cl11  1  0.30240000  0.74130000  0.21780000  1.0
  Cl  Cl12  1  0.64080000  0.43550000  0.60190000  1.0
  Cl  Cl13  1  0.14080000  0.06450000  0.39810000  1.0
  Cl  Cl14  1  0.35920000  0.93550000  0.89810000  1.0
  Cl  Cl15  1  0.85920000  0.56450000  0.10190000  1.0
  Cl  Cl16  1  0.82470000  0.72740000  0.40350000  1.0
  Cl  Cl17  1  0.32470000  0.77260000  0.59650000  1.0
  Cl  Cl18  1  0.17530000  0.22740000  0.09650000  1.0
  Cl  Cl19  1  0.67530000  0.27260000  0.90350000  1.0
  Cl  Cl20  1  0.17650000  0.41470000  0.37260000  1.0
  Cl  Cl21  1  0.67650000  0.08530000  0.62740000  1.0
  Cl  Cl22  1  0.82350000  0.91470000  0.12740000  1.0
  Cl  Cl23  1  0.32350000  0.58530000  0.87260000  1.0
