# generated using pymatgen
data_LiB12PC
_symmetry_space_group_name_H-M   'P 1'
_cell_length_a   7.12658813
_cell_length_b   7.12658813
_cell_length_c   7.12658813
_cell_angle_alpha   132.21526944
_cell_angle_beta   110.33698480
_cell_angle_gamma   88.88501197
_symmetry_Int_Tables_number   1
_chemical_formula_structural   LiB12PC
_chemical_formula_sum   'Li2 B24 P2 C2'
_cell_volume   239.11822623
_cell_formula_units_Z   2
loop_
 _symmetry_equiv_pos_site_id
 _symmetry_equiv_pos_as_xyz
  1  'x, y, z'
loop_
 _atom_site_type_symbol
 _atom_site_label
 _atom_site_symmetry_multiplicity
 _atom_site_fract_x
 _atom_site_fract_y
 _atom_site_fract_z
 _atom_site_occupancy
  Li  Li0  1  0.06544556  0.74825181  0.81719375  1
  Li  Li1  1  0.93105806  0.24825181  0.18280625  1
  B  B2  1  0.86610306  0.83236206  0.53374100  1
  B  B3  1  0.29862106  0.33236206  0.46625900  1
  B  B4  1  0.14318156  0.16631431  0.47686725  1
  B  B5  1  0.68944706  0.66631431  0.52313275  1
  B  B6  1  0.26959106  0.08971106  0.67988000  1
  B  B7  1  0.40983106  0.58971106  0.32012000  1
  B  B8  1  0.75222606  0.91153981  0.34068625  1
  B  B9  1  0.57085356  0.41153981  0.65931375  1
  B  B10  1  0.10520381  0.78011731  0.50844800  1
  B  B11  1  0.27166931  0.59675581  0.49155200  1
  B  B12  1  0.27166931  0.28011731  0.17491350  1
  B  B13  1  0.10520381  0.09675581  0.82508650  1
  B  B14  1  0.90130106  0.22283206  0.50284700  1
  B  B15  1  0.71998506  0.39845406  0.49715300  1
  B  B16  1  0.71998506  0.72283206  0.82153100  1
  B  B17  1  0.90130106  0.89845406  0.17846900  1
  B  B18  1  0.13402306  0.82477406  0.29552200  1
  B  B19  1  0.52925206  0.83850106  0.70447800  1
  B  B20  1  0.52925206  0.32477406  0.19075100  1
  B  B21  1  0.13402306  0.33850106  0.80924900  1
  B  B22  1  0.88262406  0.16233706  0.70492200  1
  B  B23  1  0.45741506  0.17770206  0.29507800  1
  B  B24  1  0.45741506  0.66233706  0.77971300  1
  B  B25  1  0.88262406  0.67770206  0.22028700  1
  P  P26  1  0.45850706  0.82833706  0.13017000  1
  P  P27  1  0.69816706  0.32833706  0.86983000  1
  C  C28  1  0.51752506  0.14494106  0.87258400  1
  C  C29  1  0.27235706  0.64494106  0.12741600  1
