# generated using pymatgen
data_Tl2S
_symmetry_space_group_name_H-M   'P 1'
_cell_length_a   6.26693128
_cell_length_b   7.12851213
_cell_length_c   7.12851213
_cell_angle_alpha   120.00000000
_cell_angle_beta   90.00000000
_cell_angle_gamma   90.00000000
_symmetry_Int_Tables_number   1
_chemical_formula_structural   Tl2S
_chemical_formula_sum   'Tl6 S3'
_cell_volume   275.79307063
_cell_formula_units_Z   3
loop_
 _symmetry_equiv_pos_site_id
 _symmetry_equiv_pos_as_xyz
  1  'x, y, z'
loop_
 _atom_site_type_symbol
 _atom_site_label
 _atom_site_symmetry_multiplicity
 _atom_site_fract_x
 _atom_site_fract_y
 _atom_site_fract_z
 _atom_site_occupancy
  Tl  Tl0  1  0.07931515  0.67184899  0.96561411  1
  Tl  Tl1  1  0.07931515  0.29376512  0.32815101  1
  Tl  Tl2  1  0.61098437  0.37472169  0.03679914  1
  Tl  Tl3  1  0.61098437  0.66207745  0.62527831  1
  Tl  Tl4  1  0.61098437  0.96320086  0.33792255  1
  Tl  Tl5  1  0.07931515  0.03438589  0.70623488  1
  S  S6  1  0.39497885  -0.00000000  0.00000000  1
  S  S7  1  0.25757458  0.66666667  0.33333333  1
  S  S8  1  0.37854601  0.33333333  0.66666667  1
