# generated using pymatgen
data_H7ClO3
_symmetry_space_group_name_H-M   'P 1'
_cell_length_a   6.33681244
_cell_length_b   6.33681244
_cell_length_c   6.71500000
_cell_angle_alpha   108.99986295
_cell_angle_beta   108.99986295
_cell_angle_gamma   106.48805863
_symmetry_Int_Tables_number   1
_chemical_formula_structural   H7ClO3
_chemical_formula_sum   'H14 Cl2 O6'
_cell_volume   216.94001897
_cell_formula_units_Z   2
loop_
 _symmetry_equiv_pos_site_id
 _symmetry_equiv_pos_as_xyz
  1  'x, y, z'
loop_
 _atom_site_type_symbol
 _atom_site_label
 _atom_site_symmetry_multiplicity
 _atom_site_fract_x
 _atom_site_fract_y
 _atom_site_fract_z
 _atom_site_occupancy
  H  H2  1  0.82420200  0.83262700  0.47429300  1.0
  H  H3  1  0.60281200  0.94250600  0.54682800  1.0
  H  H4  1  0.83262700  0.82420200  0.97429300  1.0
  H  H5  1  0.94250600  0.60281200  0.04682800  1.0
  H  H6  1  0.19354400  0.30719200  0.24622600  1.0
  H  H7  1  0.47993500  0.54939100  0.40378300  1.0
  H  H8  1  0.54939100  0.47993500  0.90378300  1.0
  H  H9  1  0.30719200  0.19354400  0.74622600  1.0
  H  H10  1  0.38575400  0.87129200  0.16609800  1.0
  H  H11  1  0.43140900  0.18315300  0.26838200  1.0
  H  H12  1  0.59364700  0.08383000  0.13348800  1.0
  H  H13  1  0.87129200  0.38575400  0.66609800  1.0
  H  H14  1  0.18315300  0.43140900  0.76838200  1.0
  H  H15  1  0.08383000  0.59364700  0.63348800  1.0
  Cl  Cl0  1  0.16130000  0.83870000  0.50000000  1.0
  Cl  Cl1  1  0.83870000  0.16130000  0.00000000  1.0
  O  O16  1  0.66170000  0.82970000  0.46190000  1.0
  O  O17  1  0.82970000  0.66170000  0.96190000  1.0
  O  O18  1  0.36990000  0.37970000  0.36860000  1.0
  O  O19  1  0.37970000  0.36990000  0.86860000  1.0
  O  O20  1  0.47430000  0.04610000  0.19850000  1.0
  O  O21  1  0.04610000  0.47430000  0.69850000  1.0
