# generated using pymatgen
data_Mo3(SeS2)2
_symmetry_space_group_name_H-M   'P 1'
_cell_length_a   3.22655166
_cell_length_b   3.22647459
_cell_length_c   28.50314956
_cell_angle_alpha   90.01287083
_cell_angle_beta   90.00000000
_cell_angle_gamma   120.00079015
_symmetry_Int_Tables_number   1
_chemical_formula_structural   Mo3(SeS2)2
_chemical_formula_sum   'Mo3 Se2 S4'
_cell_volume   256.97263818
_cell_formula_units_Z   1
loop_
 _symmetry_equiv_pos_site_id
 _symmetry_equiv_pos_as_xyz
  1  'x, y, z'
loop_
 _atom_site_type_symbol
 _atom_site_label
 _atom_site_symmetry_multiplicity
 _atom_site_fract_x
 _atom_site_fract_y
 _atom_site_fract_z
 _atom_site_occupancy
  Mo  Mo0  1  0.33337522  0.66675044  0.11633550  1
  Mo  Mo1  1  0.33323690  0.66647381  0.57830034  1
  Mo  Mo2  1  0.66669938  0.33339877  0.34630328  1
  Se  Se3  1  0.66646041  0.33292082  0.51912390  1
  Se  Se4  1  0.66666861  0.33333723  0.63746649  1
  S  S5  1  0.33345111  0.66690222  0.40029345  1
  S  S6  1  0.66661945  0.33323891  0.06235432  1
  S  S7  1  0.66680521  0.33361042  0.17035164  1
  S  S8  1  0.33328054  0.66656108  0.29231108  1
