# generated using pymatgen
data_Ca4Cl6O
_symmetry_space_group_name_H-M   'P 1'
_cell_length_a   9.03300000
_cell_length_b   9.03300000
_cell_length_c   6.83270000
_cell_angle_alpha   90.00000000
_cell_angle_beta   90.00000000
_cell_angle_gamma   120.00000000
_symmetry_Int_Tables_number   1
_chemical_formula_structural   Ca4Cl6O
_chemical_formula_sum   'Ca8 Cl12 O2'
_cell_volume   482.82194914
_cell_formula_units_Z   2
loop_
 _symmetry_equiv_pos_site_id
 _symmetry_equiv_pos_as_xyz
  1  'x, y, z'
loop_
 _atom_site_type_symbol
 _atom_site_label
 _atom_site_symmetry_multiplicity
 _atom_site_fract_x
 _atom_site_fract_y
 _atom_site_fract_z
 _atom_site_occupancy
  Ca  Ca0  1  0.80196000  0.19804000  0.49978000  1.0
  Ca  Ca1  1  0.60392000  0.80196000  0.99978000  1.0
  Ca  Ca2  1  0.19804000  0.39608000  0.99978000  1.0
  Ca  Ca3  1  0.80196000  0.60392000  0.49978000  1.0
  Ca  Ca4  1  0.39608000  0.19804000  0.49978000  1.0
  Ca  Ca5  1  0.19804000  0.80196000  0.99978000  1.0
  Ca  Ca6  1  0.66666667  0.33333333  0.92790000  1.0
  Ca  Ca7  1  0.33333333  0.66666667  0.42790000  1.0
  Cl  Cl8  1  0.86333000  0.13667000  0.88453000  1.0
  Cl  Cl9  1  0.72666000  0.86333000  0.38453000  1.0
  Cl  Cl10  1  0.13667000  0.27334000  0.38453000  1.0
  Cl  Cl11  1  0.86333000  0.72666000  0.88453000  1.0
  Cl  Cl12  1  0.27334000  0.13667000  0.88453000  1.0
  Cl  Cl13  1  0.13667000  0.86333000  0.38453000  1.0
  Cl  Cl14  1  0.46371000  0.53629000  0.70802000  1.0
  Cl  Cl15  1  0.92742000  0.46371000  0.20802000  1.0
  Cl  Cl16  1  0.53629000  0.07258000  0.20802000  1.0
  Cl  Cl17  1  0.46371000  0.92742000  0.70802000  1.0
  Cl  Cl18  1  0.07258000  0.53629000  0.70802000  1.0
  Cl  Cl19  1  0.53629000  0.46371000  0.20802000  1.0
  O  O20  1  0.66666667  0.33333333  0.60660000  1.0
  O  O21  1  0.33333333  0.66666667  0.10660000  1.0
