# generated using pymatgen
data_Ba4I6O
_symmetry_space_group_name_H-M   'P 1'
_cell_length_a   10.83800000
_cell_length_b   10.83800000
_cell_length_c   8.41000000
_cell_angle_alpha   90.00000000
_cell_angle_beta   90.00000000
_cell_angle_gamma   120.00000000
_symmetry_Int_Tables_number   1
_chemical_formula_structural   Ba4I6O
_chemical_formula_sum   'Ba8 I12 O2'
_cell_volume   855.50966610
_cell_formula_units_Z   2
loop_
 _symmetry_equiv_pos_site_id
 _symmetry_equiv_pos_as_xyz
  1  'x, y, z'
loop_
 _atom_site_type_symbol
 _atom_site_label
 _atom_site_symmetry_multiplicity
 _atom_site_fract_x
 _atom_site_fract_y
 _atom_site_fract_z
 _atom_site_occupancy
  Ba  Ba0  1  0.79641001  0.59282001  0.12927000  1.0
  Ba  Ba1  1  0.20358999  0.79641001  0.62927000  1.0
  Ba  Ba2  1  0.59282001  0.79641001  0.62927000  1.0
  Ba  Ba3  1  0.40717999  0.20358999  0.12927000  1.0
  Ba  Ba4  1  0.79641001  0.20358999  0.12927000  1.0
  Ba  Ba5  1  0.20358999  0.40717999  0.62927000  1.0
  Ba  Ba6  1  0.66666667  0.33333333  0.52342000  1.0
  Ba  Ba7  1  0.33333333  0.66666667  0.02342000  1.0
  I  I8  1  0.86333001  0.72666001  0.51355000  1.0
  I  I9  1  0.13666999  0.86333001  0.01355000  1.0
  I  I10  1  0.72666001  0.86333001  0.01355000  1.0
  I  I11  1  0.27333999  0.13666999  0.51355000  1.0
  I  I12  1  0.86333001  0.13666999  0.51355000  1.0
  I  I13  1  0.13666999  0.27333999  0.01355000  1.0
  I  I14  1  0.53228000  0.46772000  0.82627000  1.0
  I  I15  1  0.06456000  0.53228000  0.32627000  1.0
  I  I16  1  0.46772000  0.93544000  0.32627000  1.0
  I  I17  1  0.53228000  0.06456000  0.82627000  1.0
  I  I18  1  0.93544000  0.46772000  0.82627000  1.0
  I  I19  1  0.46772000  0.53228000  0.32627000  1.0
  O  O20  1  0.66666667  0.33333333  0.22120000  1.0
  O  O21  1  0.33333333  0.66666667  0.72120000  1.0
