# generated using pymatgen
data_CaAl12O19
_symmetry_space_group_name_H-M   'P 1'
_cell_length_a   5.61109181
_cell_length_b   5.61109181
_cell_length_c   22.06773100
_cell_angle_alpha   90.00000000
_cell_angle_beta   90.00000000
_cell_angle_gamma   119.99999780
_symmetry_Int_Tables_number   1
_chemical_formula_structural   CaAl12O19
_chemical_formula_sum   'Ca2 Al24 O38'
_cell_volume   601.70424142
_cell_formula_units_Z   2
loop_
 _symmetry_equiv_pos_site_id
 _symmetry_equiv_pos_as_xyz
  1  'x, y, z'
loop_
 _atom_site_type_symbol
 _atom_site_label
 _atom_site_symmetry_multiplicity
 _atom_site_fract_x
 _atom_site_fract_y
 _atom_site_fract_z
 _atom_site_occupancy
  Ca  Ca0  1  0.33333333  0.66666667  0.74913100  1
  Ca  Ca1  1  0.66666667  0.33333333  0.24913100  1
  Al  Al2  1  0.66666667  0.33333333  0.69085200  1
  Al  Al3  1  0.33333333  0.66666667  0.30894000  1
  Al  Al4  1  0.33333333  0.66666667  0.19085200  1
  Al  Al5  1  0.66666667  0.33333333  0.80894000  1
  Al  Al6  1  0.66666667  0.33333333  0.52842300  1
  Al  Al7  1  0.33333333  0.66666667  0.47206000  1
  Al  Al8  1  0.33333333  0.66666667  0.02842300  1
  Al  Al9  1  0.66666667  0.33333333  0.97206000  1
  Al  Al10  1  0.00000000  0.00000000  0.50033500  1
  Al  Al11  1  0.00000000  0.00000000  0.00033500  1
  Al  Al12  1  0.83090667  0.66181333  0.39108100  1
  Al  Al13  1  0.83090667  0.16909333  0.39108100  1
  Al  Al14  1  0.33818667  0.16909333  0.39108100  1
  Al  Al15  1  0.16784000  0.33568000  0.60970400  1
  Al  Al16  1  0.16784000  0.83216000  0.60970400  1
  Al  Al17  1  0.66432000  0.83216000  0.60970400  1
  Al  Al18  1  0.16909333  0.33818667  0.89108100  1
  Al  Al19  1  0.16909333  0.83090667  0.89108100  1
  Al  Al20  1  0.66181333  0.83090667  0.89108100  1
  Al  Al21  1  0.83216000  0.66432000  0.10970400  1
  Al  Al22  1  0.83216000  0.16784000  0.10970400  1
  Al  Al23  1  0.33568000  0.16784000  0.10970400  1
  Al  Al24  1  0.00000000  0.00000000  0.75682100  1
  Al  Al25  1  0.00000000  0.00000000  0.25682100  1
  O  O26  1  0.49678867  0.99357733  0.64942100  1
  O  O27  1  0.49678867  0.50321133  0.64942100  1
  O  O28  1  0.00642267  0.50321133  0.64942100  1
  O  O29  1  0.50346733  0.00693467  0.35084100  1
  O  O30  1  0.50346733  0.49653267  0.35084100  1
  O  O31  1  0.99306533  0.49653267  0.35084100  1
  O  O32  1  0.50321133  0.00642267  0.14942100  1
  O  O33  1  0.50321133  0.49678867  0.14942100  1
  O  O34  1  0.99357733  0.49678867  0.14942100  1
  O  O35  1  0.49653267  0.99306533  0.85084100  1
  O  O36  1  0.49653267  0.50346733  0.85084100  1
  O  O37  1  0.00693467  0.50346733  0.85084100  1
  O  O38  1  0.00000000  0.00000000  0.64864200  1
  O  O39  1  0.00000000  0.00000000  0.34965500  1
  O  O40  1  0.00000000  0.00000000  0.14864200  1
  O  O41  1  0.00000000  0.00000000  0.84965500  1
  O  O42  1  0.84461367  0.68922733  0.55185000  1
  O  O43  1  0.84461367  0.15538633  0.55185000  1
  O  O44  1  0.31077267  0.15538633  0.55185000  1
  O  O45  1  0.15477067  0.30954133  0.44749800  1
  O  O46  1  0.15477067  0.84522933  0.44749800  1
  O  O47  1  0.69045867  0.84522933  0.44749800  1
  O  O48  1  0.15538633  0.31077267  0.05185000  1
  O  O49  1  0.15538633  0.84461367  0.05185000  1
  O  O50  1  0.68922733  0.84461367  0.05185000  1
  O  O51  1  0.84522933  0.69045867  0.94749800  1
  O  O52  1  0.84522933  0.15477067  0.94749800  1
  O  O53  1  0.30954133  0.15477067  0.94749800  1
  O  O54  1  0.33333333  0.66666667  0.55455900  1
  O  O55  1  0.66666667  0.33333333  0.44545300  1
  O  O56  1  0.66666667  0.33333333  0.05455900  1
  O  O57  1  0.33333333  0.66666667  0.94545300  1
  O  O58  1  0.81867600  0.63735200  0.75055200  1
  O  O59  1  0.81867600  0.18132400  0.75055200  1
  O  O60  1  0.36264800  0.18132400  0.75055200  1
  O  O61  1  0.18132400  0.36264800  0.25055200  1
  O  O62  1  0.18132400  0.81867600  0.25055200  1
  O  O63  1  0.63735200  0.81867600  0.25055200  1
