# generated using pymatgen
data_SnB4O7
_symmetry_space_group_name_H-M   'P 1'
_cell_length_a   10.85340000
_cell_length_b   4.44840000
_cell_length_c   4.23430000
_cell_angle_alpha   90.00000000
_cell_angle_beta   90.00000000
_cell_angle_gamma   90.00000000
_symmetry_Int_Tables_number   1
_chemical_formula_structural   SnB4O7
_chemical_formula_sum   'Sn2 B8 O14'
_cell_volume   204.43312423
_cell_formula_units_Z   2
loop_
 _symmetry_equiv_pos_site_id
 _symmetry_equiv_pos_as_xyz
  1  'x, y, z'
loop_
 _atom_site_type_symbol
 _atom_site_label
 _atom_site_symmetry_multiplicity
 _atom_site_fract_x
 _atom_site_fract_y
 _atom_site_fract_z
 _atom_site_occupancy
  Sn  Sn0  1  0.50000000  0.82402000  0.60446000  1.0
  Sn  Sn1  1  0.00000000  0.17598000  0.10446000  1.0
  B  B2  1  0.12250000  0.67280000  0.55650000  1.0
  B  B3  1  0.75190000  0.82510000  0.02580000  1.0
  B  B4  1  0.74810000  0.17490000  0.52580000  1.0
  B  B5  1  0.37750000  0.32720000  0.05650000  1.0
  B  B6  1  0.62250000  0.32720000  0.05650000  1.0
  B  B7  1  0.87750000  0.67280000  0.55650000  1.0
  B  B8  1  0.24810000  0.82510000  0.02580000  1.0
  B  B9  1  0.25190000  0.17490000  0.52580000  1.0
  O  O10  1  0.50000000  0.23090000  0.94590000  1.0
  O  O11  1  0.00000000  0.76910000  0.44590000  1.0
  O  O12  1  0.21970000  0.87020000  0.38120000  1.0
  O  O13  1  0.28030000  0.12980000  0.88120000  1.0
  O  O14  1  0.71970000  0.12980000  0.88120000  1.0
  O  O15  1  0.78030000  0.87020000  0.38120000  1.0
  O  O16  1  0.14220000  0.35740000  0.47630000  1.0
  O  O17  1  0.35780000  0.64260000  0.97630000  1.0
  O  O18  1  0.64220000  0.64260000  0.97630000  1.0
  O  O19  1  0.85780000  0.35740000  0.47630000  1.0
  O  O20  1  0.13720000  0.72670000  0.88840000  1.0
  O  O21  1  0.36280000  0.27330000  0.38840000  1.0
  O  O22  1  0.63720000  0.27330000  0.38840000  1.0
  O  O23  1  0.86280000  0.72670000  0.88840000  1.0
