# generated using pymatgen
data_Y2Be2SiO7
_symmetry_space_group_name_H-M   'P 1'
_cell_length_a   7.27300000
_cell_length_b   7.27300000
_cell_length_c   4.75100000
_cell_angle_alpha   90.00000000
_cell_angle_beta   90.00000000
_cell_angle_gamma   90.00000000
_symmetry_Int_Tables_number   1
_chemical_formula_structural   Y2Be2SiO7
_chemical_formula_sum   'Y4 Be4 Si2 O14'
_cell_volume   251.31140928
_cell_formula_units_Z   2
loop_
 _symmetry_equiv_pos_site_id
 _symmetry_equiv_pos_as_xyz
  1  'x, y, z'
loop_
 _atom_site_type_symbol
 _atom_site_label
 _atom_site_symmetry_multiplicity
 _atom_site_fract_x
 _atom_site_fract_y
 _atom_site_fract_z
 _atom_site_occupancy
  Y  Y0  1  0.34080000  0.15920000  0.50660000  1.0
  Y  Y1  1  0.15920000  0.65920000  0.49340000  1.0
  Y  Y2  1  0.84080000  0.34080000  0.49340000  1.0
  Y  Y3  1  0.65920000  0.84080000  0.50660000  1.0
  Be  Be4  1  0.63420000  0.13420000  0.04450000  1.0
  Be  Be5  1  0.86580000  0.63420000  0.95550000  1.0
  Be  Be6  1  0.13420000  0.36580000  0.95550000  1.0
  Be  Be7  1  0.36580000  0.86580000  0.04450000  1.0
  Si  Si8  1  0.50000000  0.50000000  0.00000000  1.0
  Si  Si9  1  0.00000000  0.00000000  0.00000000  1.0
  O  O10  1  0.16270000  0.91720000  0.20010000  1.0
  O  O11  1  0.91720000  0.83730000  0.79990000  1.0
  O  O12  1  0.08280000  0.16270000  0.79990000  1.0
  O  O13  1  0.83730000  0.08280000  0.20010000  1.0
  O  O14  1  0.33730000  0.41720000  0.79990000  1.0
  O  O15  1  0.66270000  0.58280000  0.79990000  1.0
  O  O16  1  0.41720000  0.66270000  0.20010000  1.0
  O  O17  1  0.58280000  0.33730000  0.20010000  1.0
  O  O18  1  0.85890000  0.64110000  0.29680000  1.0
  O  O19  1  0.64110000  0.14110000  0.70320000  1.0
  O  O20  1  0.35890000  0.85890000  0.70320000  1.0
  O  O21  1  0.14110000  0.35890000  0.29680000  1.0
  O  O22  1  0.00000000  0.50000000  0.81710000  1.0
  O  O23  1  0.50000000  0.00000000  0.18290000  1.0
