# generated using pymatgen
data_PIrS
_symmetry_space_group_name_H-M   'P 1'
_cell_length_a   5.62068119
_cell_length_b   5.63157504
_cell_length_c   5.64997968
_cell_angle_alpha   90.00000000
_cell_angle_beta   90.00000000
_cell_angle_gamma   90.00000000
_symmetry_Int_Tables_number   1
_chemical_formula_structural   PIrS
_chemical_formula_sum   'P4 Ir4 S4'
_cell_volume   178.84043343
_cell_formula_units_Z   4
loop_
 _symmetry_equiv_pos_site_id
 _symmetry_equiv_pos_as_xyz
  1  'x, y, z'
loop_
 _atom_site_type_symbol
 _atom_site_label
 _atom_site_symmetry_multiplicity
 _atom_site_fract_x
 _atom_site_fract_y
 _atom_site_fract_z
 _atom_site_occupancy
  P  P0  1  0.38813651  0.38681959  0.63346330  1
  P  P1  1  0.88813651  0.61318041  0.36653670  1
  P  P2  1  0.88813651  0.11318041  0.63346330  1
  P  P3  1  0.38813651  0.88681959  0.36653670  1
  Ir  Ir4  1  0.00376980  0.49396884  0.74437660  1
  Ir  Ir5  1  0.50376980  0.50603116  0.25562340  1
  Ir  Ir6  1  0.50376980  0.00603116  0.74437660  1
  Ir  Ir7  1  0.00376980  0.99396884  0.25562340  1
  S  S8  1  0.61029368  0.11009989  0.14116889  1
  S  S9  1  0.11029368  0.88990011  0.85883111  1
  S  S10  1  0.11029368  0.38990011  0.14116889  1
  S  S11  1  0.61029368  0.61009989  0.85883111  1
