# generated using pymatgen
data_ScBe4Rh
_symmetry_space_group_name_H-M   'P 1'
_cell_length_a   4.46629476
_cell_length_b   4.46629476
_cell_length_c   4.46629476
_cell_angle_alpha   60.00000000
_cell_angle_beta   59.99999999
_cell_angle_gamma   59.99999998
_symmetry_Int_Tables_number   1
_chemical_formula_structural   ScBe4Rh
_chemical_formula_sum   'Sc1 Be4 Rh1'
_cell_volume   62.99805577
_cell_formula_units_Z   1
loop_
 _symmetry_equiv_pos_site_id
 _symmetry_equiv_pos_as_xyz
  1  'x, y, z'
loop_
 _atom_site_type_symbol
 _atom_site_label
 _atom_site_symmetry_multiplicity
 _atom_site_fract_x
 _atom_site_fract_y
 _atom_site_fract_z
 _atom_site_occupancy
  Sc  Sc0  1  0.00000000  0.00000000  0.00000000  1
  Be  Be1  1  0.37668030  0.37668030  0.37668030  1
  Be  Be2  1  0.37668030  0.37668030  0.86995909  1
  Be  Be3  1  0.86995909  0.37668030  0.37668030  1
  Be  Be4  1  0.37668030  0.86995909  0.37668030  1
  Rh  Rh5  1  0.75000000  0.75000000  0.75000000  1
