# generated using pymatgen
data_CoPS
_symmetry_space_group_name_H-M   'P 1'
_cell_length_a   5.32644868
_cell_length_b   5.33664543
_cell_length_c   5.35396527
_cell_angle_alpha   90.00000000
_cell_angle_beta   90.00000000
_cell_angle_gamma   90.00000000
_symmetry_Int_Tables_number   1
_chemical_formula_structural   CoPS
_chemical_formula_sum   'Co4 P4 S4'
_cell_volume   152.18843309
_cell_formula_units_Z   4
loop_
 _symmetry_equiv_pos_site_id
 _symmetry_equiv_pos_as_xyz
  1  'x, y, z'
loop_
 _atom_site_type_symbol
 _atom_site_label
 _atom_site_symmetry_multiplicity
 _atom_site_fract_x
 _atom_site_fract_y
 _atom_site_fract_z
 _atom_site_occupancy
  Co  Co0  1  0.50355100  0.50281021  0.75118108  1
  Co  Co1  1  0.50355100  0.00281021  0.24881892  1
  Co  Co2  1  0.00355100  0.99718979  0.75118108  1
  Co  Co3  1  0.00355100  0.49718979  0.24881892  1
  P  P4  1  0.38543750  0.88248145  0.87085967  1
  P  P5  1  0.88543750  0.61751855  0.87085967  1
  P  P6  1  0.38543750  0.38248145  0.12914033  1
  P  P7  1  0.88543750  0.11751855  0.12914033  1
  S  S8  1  0.61801050  0.11614569  0.63527507  1
  S  S9  1  0.11801050  0.38385431  0.63527507  1
  S  S10  1  0.11801050  0.88385431  0.36472493  1
  S  S11  1  0.61801050  0.61614569  0.36472493  1
