# generated using pymatgen
data_Be4AlIr
_symmetry_space_group_name_H-M   'P 1'
_cell_length_a   4.30033355
_cell_length_b   4.30033355
_cell_length_c   4.30033355
_cell_angle_alpha   59.99999992
_cell_angle_beta   59.99999995
_cell_angle_gamma   59.99999995
_symmetry_Int_Tables_number   1
_chemical_formula_structural   Be4AlIr
_chemical_formula_sum   'Be4 Al1 Ir1'
_cell_volume   56.23302278
_cell_formula_units_Z   1
loop_
 _symmetry_equiv_pos_site_id
 _symmetry_equiv_pos_as_xyz
  1  'x, y, z'
loop_
 _atom_site_type_symbol
 _atom_site_label
 _atom_site_symmetry_multiplicity
 _atom_site_fract_x
 _atom_site_fract_y
 _atom_site_fract_z
 _atom_site_occupancy
  Be  Be0  1  0.62479329  0.12562012  0.62479329  1
  Be  Be1  1  0.62479329  0.62479329  0.12562012  1
  Be  Be2  1  0.12562012  0.62479329  0.62479329  1
  Be  Be3  1  0.62479329  0.62479329  0.62479329  1
  Al  Al4  1  0.00000000  0.00000000  0.00000000  1
  Ir  Ir5  1  0.25000000  0.25000000  0.25000000  1
