# generated using pymatgen
data_SiPtS
_symmetry_space_group_name_H-M   'P 1'
_cell_length_a   5.71029402
_cell_length_b   5.75666869
_cell_length_c   5.82237922
_cell_angle_alpha   90.00000000
_cell_angle_beta   90.00000000
_cell_angle_gamma   90.00000000
_symmetry_Int_Tables_number   1
_chemical_formula_structural   SiPtS
_chemical_formula_sum   'Si4 Pt4 S4'
_cell_volume   191.39482639
_cell_formula_units_Z   4
loop_
 _symmetry_equiv_pos_site_id
 _symmetry_equiv_pos_as_xyz
  1  'x, y, z'
loop_
 _atom_site_type_symbol
 _atom_site_label
 _atom_site_symmetry_multiplicity
 _atom_site_fract_x
 _atom_site_fract_y
 _atom_site_fract_z
 _atom_site_occupancy
  Si  Si0  1  0.88960348  0.89018053  0.36855976  1
  Si  Si1  1  0.88960348  0.39018053  0.63144024  1
  Si  Si2  1  0.38960348  0.60981947  0.36855976  1
  Si  Si3  1  0.38960348  0.10981947  0.63144024  1
  Pt  Pt4  1  0.00144592  0.50886515  0.25700593  1
  Pt  Pt5  1  0.50144592  0.49113485  0.74299407  1
  Pt  Pt6  1  0.50144592  0.99113485  0.25700593  1
  Pt  Pt7  1  0.00144592  0.00886515  0.74299407  1
  S  S8  1  0.10705059  0.61222001  0.86027803  1
  S  S9  1  0.10705059  0.11222001  0.13972197  1
  S  S10  1  0.60705059  0.88777999  0.86027803  1
  S  S11  1  0.60705059  0.38777999  0.13972197  1
