# generated using pymatgen
data_Si4As4Ru
_symmetry_space_group_name_H-M   'P 1'
_cell_length_a   5.11980056
_cell_length_b   5.84473294
_cell_length_c   6.38681018
_cell_angle_alpha   85.42256333
_cell_angle_beta   68.31933526
_cell_angle_gamma   70.51920892
_symmetry_Int_Tables_number   1
_chemical_formula_structural   Si4As4Ru
_chemical_formula_sum   'Si4 As4 Ru1'
_cell_volume   167.22542258
_cell_formula_units_Z   1
loop_
 _symmetry_equiv_pos_site_id
 _symmetry_equiv_pos_as_xyz
  1  'x, y, z'
loop_
 _atom_site_type_symbol
 _atom_site_label
 _atom_site_symmetry_multiplicity
 _atom_site_fract_x
 _atom_site_fract_y
 _atom_site_fract_z
 _atom_site_occupancy
  Si  Si0  1  0.68263790  0.78127160  0.21761727  1
  Si  Si1  1  0.23846558  0.34643560  0.43106547  1
  Si  Si2  1  0.34103480  0.60309317  0.88626842  1
  Si  Si3  1  0.85026909  0.96945916  0.69772567  1
  As  As4  1  0.16068752  0.01228869  0.31652040  1
  As  As5  1  0.63012357  0.41163857  0.11693130  1
  As  As6  1  0.75993732  0.64388163  0.56534023  1
  As  As7  1  0.33900403  0.22403931  0.76382804  1
  Ru  Ru8  1  0.99793019  0.98969227  0.99620420  1
