# generated using pymatgen
data_Sr2MgSi2O7
_symmetry_space_group_name_H-M   'P 1'
_cell_length_a   8.01100000
_cell_length_b   8.01100000
_cell_length_c   5.16300000
_cell_angle_alpha   90.00000000
_cell_angle_beta   90.00000000
_cell_angle_gamma   90.00000000
_symmetry_Int_Tables_number   1
_chemical_formula_structural   Sr2MgSi2O7
_chemical_formula_sum   'Sr4 Mg2 Si4 O14'
_cell_volume   331.34131272
_cell_formula_units_Z   2
loop_
 _symmetry_equiv_pos_site_id
 _symmetry_equiv_pos_as_xyz
  1  'x, y, z'
loop_
 _atom_site_type_symbol
 _atom_site_label
 _atom_site_symmetry_multiplicity
 _atom_site_fract_x
 _atom_site_fract_y
 _atom_site_fract_z
 _atom_site_occupancy
  Sr  Sr0  1  0.16670000  0.66666667  0.50660000  1.0
  Sr  Sr1  1  0.66666667  0.83330000  0.49340000  1.0
  Sr  Sr2  1  0.33333333  0.16670000  0.49340000  1.0
  Sr  Sr3  1  0.83330000  0.33333333  0.50660000  1.0
  Mg  Mg4  1  0.00000000  0.00000000  0.00000000  1.0
  Mg  Mg5  1  0.50000000  0.50000000  0.00000000  1.0
  Si  Si6  1  0.36340000  0.86340000  0.93400000  1.0
  Si  Si7  1  0.63660000  0.13660000  0.93400000  1.0
  Si  Si8  1  0.86340000  0.63660000  0.06600000  1.0
  Si  Si9  1  0.13660000  0.36340000  0.06600000  1.0
  O  O10  1  0.42290000  0.68570000  0.80800000  1.0
  O  O11  1  0.57710000  0.31430000  0.80800000  1.0
  O  O12  1  0.31430000  0.42290000  0.19200000  1.0
  O  O13  1  0.68570000  0.57710000  0.19200000  1.0
  O  O14  1  0.18570000  0.92290000  0.80800000  1.0
  O  O15  1  0.92290000  0.81430000  0.19200000  1.0
  O  O16  1  0.07710000  0.18570000  0.19200000  1.0
  O  O17  1  0.81430000  0.07710000  0.80800000  1.0
  O  O18  1  0.35100000  0.85100000  0.26900000  1.0
  O  O19  1  0.85100000  0.64900000  0.73100000  1.0
  O  O20  1  0.00000000  0.50000000  0.15300000  1.0
  O  O21  1  0.50000000  0.00000000  0.84700000  1.0
  O  O22  1  0.64900000  0.14900000  0.26900000  1.0
  O  O23  1  0.14900000  0.35100000  0.73100000  1.0
