# generated using pymatgen
data_SbRhS
_symmetry_space_group_name_H-M   'P 1'
_cell_length_a   5.99643198
_cell_length_b   6.01108798
_cell_length_c   6.00711565
_cell_angle_alpha   90.00000000
_cell_angle_beta   90.00000000
_cell_angle_gamma   90.00000000
_symmetry_Int_Tables_number   1
_chemical_formula_structural   SbRhS
_chemical_formula_sum   'Sb4 Rh4 S4'
_cell_volume   216.52696536
_cell_formula_units_Z   4
loop_
 _symmetry_equiv_pos_site_id
 _symmetry_equiv_pos_as_xyz
  1  'x, y, z'
loop_
 _atom_site_type_symbol
 _atom_site_label
 _atom_site_symmetry_multiplicity
 _atom_site_fract_x
 _atom_site_fract_y
 _atom_site_fract_z
 _atom_site_occupancy
  Sb  Sb0  1  0.36610390  0.61943218  0.61784197  1
  Sb  Sb1  1  0.63389610  0.38056782  0.11784197  1
  Sb  Sb2  1  0.36610390  0.88056782  0.11784197  1
  Sb  Sb3  1  0.63389610  0.11943218  0.61784197  1
  Rh  Rh4  1  0.23105303  0.48850379  0.00207634  1
  Rh  Rh5  1  0.76894697  0.51149621  0.50207634  1
  Rh  Rh6  1  0.23105303  0.01149621  0.50207634  1
  Rh  Rh7  1  0.76894697  0.98850379  0.00207634  1
  S  S8  1  0.87414363  0.87951459  0.37788169  1
  S  S9  1  0.12585637  0.12048541  0.87788169  1
  S  S10  1  0.87414363  0.62048541  0.87788169  1
  S  S11  1  0.12585637  0.37951459  0.37788169  1
