# generated using pymatgen
data_CoPSe
_symmetry_space_group_name_H-M   'P 1'
_cell_length_a   5.50520076
_cell_length_b   5.51599788
_cell_length_c   5.54449453
_cell_angle_alpha   90.00000000
_cell_angle_beta   90.00000000
_cell_angle_gamma   90.00000000
_symmetry_Int_Tables_number   1
_chemical_formula_structural   CoPSe
_chemical_formula_sum   'Co4 P4 Se4'
_cell_volume   168.36786743
_cell_formula_units_Z   4
loop_
 _symmetry_equiv_pos_site_id
 _symmetry_equiv_pos_as_xyz
  1  'x, y, z'
loop_
 _atom_site_type_symbol
 _atom_site_label
 _atom_site_symmetry_multiplicity
 _atom_site_fract_x
 _atom_site_fract_y
 _atom_site_fract_z
 _atom_site_occupancy
  Co  Co0  1  0.50655561  0.01231942  0.26459133  1
  Co  Co1  1  0.50655561  0.51231942  0.73540867  1
  Co  Co2  1  0.00655561  0.48768058  0.26459133  1
  Co  Co3  1  0.00655561  0.98768058  0.73540867  1
  P  P4  1  0.37934141  0.37730800  0.37923775  1
  P  P5  1  0.87934141  0.12269200  0.37923775  1
  P  P6  1  0.37934141  0.87730800  0.62076225  1
  P  P7  1  0.87934141  0.62269200  0.62076225  1
  Se  Se8  1  0.62110098  0.61969165  0.13491261  1
  Se  Se9  1  0.12110098  0.88030835  0.13491261  1
  Se  Se10  1  0.12110098  0.38030835  0.86508739  1
  Se  Se11  1  0.62110098  0.11969165  0.86508739  1
