# generated using pymatgen
data_TePRh
_symmetry_space_group_name_H-M   'P 1'
_cell_length_a   6.00454955
_cell_length_b   6.00454955
_cell_length_c   6.00454955
_cell_angle_alpha   90.00000000
_cell_angle_beta   90.00000000
_cell_angle_gamma   90.00000000
_symmetry_Int_Tables_number   1
_chemical_formula_structural   TePRh
_chemical_formula_sum   'Te4 P4 Rh4'
_cell_volume   216.49172406
_cell_formula_units_Z   4
loop_
 _symmetry_equiv_pos_site_id
 _symmetry_equiv_pos_as_xyz
  1  'x, y, z'
loop_
 _atom_site_type_symbol
 _atom_site_label
 _atom_site_symmetry_multiplicity
 _atom_site_fract_x
 _atom_site_fract_y
 _atom_site_fract_z
 _atom_site_occupancy
  Te  Te0  1  0.37772034  0.37772034  0.37772034  1
  Te  Te1  1  0.12227966  0.62227966  0.87772034  1
  Te  Te2  1  0.87772034  0.12227966  0.62227966  1
  Te  Te3  1  0.62227966  0.87772034  0.12227966  1
  P  P4  1  0.61974727  0.61974727  0.61974727  1
  P  P5  1  0.88025273  0.38025273  0.11974727  1
  P  P6  1  0.11974727  0.88025273  0.38025273  1
  P  P7  1  0.38025273  0.11974727  0.88025273  1
  Rh  Rh8  1  0.02019681  0.02019681  0.02019681  1
  Rh  Rh9  1  0.47980319  0.97980319  0.52019681  1
  Rh  Rh10  1  0.52019681  0.47980319  0.97980319  1
  Rh  Rh11  1  0.97980319  0.52019681  0.47980319  1
