# generated using pymatgen
data_KAlCl4
_symmetry_space_group_name_H-M   'P 1'
_cell_length_a   7.18300000
_cell_length_b   10.48100000
_cell_length_c   9.27300046
_cell_angle_alpha   90.00000000
_cell_angle_beta   93.10000088
_cell_angle_gamma   90.00000000
_symmetry_Int_Tables_number   1
_chemical_formula_structural   KAlCl4
_chemical_formula_sum   'K4 Al4 Cl16'
_cell_volume   697.09647547
_cell_formula_units_Z   4
loop_
 _symmetry_equiv_pos_site_id
 _symmetry_equiv_pos_as_xyz
  1  'x, y, z'
loop_
 _atom_site_type_symbol
 _atom_site_label
 _atom_site_symmetry_multiplicity
 _atom_site_fract_x
 _atom_site_fract_y
 _atom_site_fract_z
 _atom_site_occupancy
  K  K0  1  0.44410000  0.08220000  0.94520000  1.0
  K  K1  1  0.55590000  0.58220000  0.05480000  1.0
  K  K2  1  0.05280000  0.69510000  0.55660000  1.0
  K  K3  1  0.94720000  0.19510000  0.44340000  1.0
  Al  Al4  1  0.00680000  0.33520000  0.93360000  1.0
  Al  Al5  1  0.99320000  0.83520000  0.06640000  1.0
  Al  Al6  1  0.49180000  0.44350000  0.56410000  1.0
  Al  Al7  1  0.50820000  0.94350000  0.43590000  1.0
  Cl  Cl8  1  0.02630000  0.17370000  0.79770000  1.0
  Cl  Cl9  1  0.97370000  0.67370000  0.20230000  1.0
  Cl  Cl10  1  0.94470000  0.50860000  0.82000000  1.0
  Cl  Cl11  1  0.05530000  0.00860000  0.18000000  1.0
  Cl  Cl12  1  0.78790000  0.30860000  0.07820000  1.0
  Cl  Cl13  1  0.21210000  0.80860000  0.92180000  1.0
  Cl  Cl14  1  0.26560000  0.34800000  0.05840000  1.0
  Cl  Cl15  1  0.73440000  0.84800000  0.94160000  1.0
  Cl  Cl16  1  0.46970000  0.60720000  0.69960000  1.0
  Cl  Cl17  1  0.53030000  0.10720000  0.30040000  1.0
  Cl  Cl18  1  0.54090000  0.27700000  0.68920000  1.0
  Cl  Cl19  1  0.45910000  0.77700000  0.31080000  1.0
  Cl  Cl20  1  0.71490000  0.46790000  0.42550000  1.0
  Cl  Cl21  1  0.28510000  0.96790000  0.57450000  1.0
  Cl  Cl22  1  0.23410000  0.42820000  0.44230000  1.0
  Cl  Cl23  1  0.76590000  0.92820000  0.55770000  1.0
