# generated using pymatgen
data_PIrSe
_symmetry_space_group_name_H-M   'P 1'
_cell_length_a   5.77798529
_cell_length_b   5.79537152
_cell_length_c   5.83035764
_cell_angle_alpha   90.00000000
_cell_angle_beta   90.00000000
_cell_angle_gamma   90.00000000
_symmetry_Int_Tables_number   1
_chemical_formula_structural   PIrSe
_chemical_formula_sum   'P4 Ir4 Se4'
_cell_volume   195.23285700
_cell_formula_units_Z   4
loop_
 _symmetry_equiv_pos_site_id
 _symmetry_equiv_pos_as_xyz
  1  'x, y, z'
loop_
 _atom_site_type_symbol
 _atom_site_label
 _atom_site_symmetry_multiplicity
 _atom_site_fract_x
 _atom_site_fract_y
 _atom_site_fract_z
 _atom_site_occupancy
  P  P0  1  0.38262027  0.38237335  0.62533032  1
  P  P1  1  0.88262027  0.61762665  0.37466968  1
  P  P2  1  0.88262027  0.11762665  0.62533032  1
  P  P3  1  0.38262027  0.88237335  0.37466968  1
  Ir  Ir4  1  0.00630616  0.48557074  0.73294552  1
  Ir  Ir5  1  0.50630616  0.51442926  0.26705448  1
  Ir  Ir6  1  0.50630616  0.01442926  0.73294552  1
  Ir  Ir7  1  0.00630616  0.98557074  0.26705448  1
  Se  Se8  1  0.61327357  0.11428567  0.13971868  1
  Se  Se9  1  0.11327357  0.88571433  0.86028132  1
  Se  Se10  1  0.11327357  0.38571433  0.13971868  1
  Se  Se11  1  0.61327357  0.61428567  0.86028132  1
