# generated using pymatgen
data_GeIrS
_symmetry_space_group_name_H-M   'P 1'
_cell_length_a   5.92239853
_cell_length_b   5.94650364
_cell_length_c   6.05110386
_cell_angle_alpha   113.32206395
_cell_angle_beta   90.00000000
_cell_angle_gamma   90.00000000
_symmetry_Int_Tables_number   1
_chemical_formula_structural   GeIrS
_chemical_formula_sum   'Ge4 Ir4 S4'
_cell_volume   195.69317013
_cell_formula_units_Z   4
loop_
 _symmetry_equiv_pos_site_id
 _symmetry_equiv_pos_as_xyz
  1  'x, y, z'
loop_
 _atom_site_type_symbol
 _atom_site_label
 _atom_site_symmetry_multiplicity
 _atom_site_fract_x
 _atom_site_fract_y
 _atom_site_fract_z
 _atom_site_occupancy
  Ge  Ge0  1  0.13117466  0.84112120  0.43383915  1
  Ge  Ge1  1  0.12768762  0.34806114  0.87458042  1
  Ge  Ge2  1  0.62768762  0.65193886  0.12541958  1
  Ge  Ge3  1  0.63117466  0.15887880  0.56616085  1
  Ir  Ir4  1  0.99609580  0.78553113  0.03586787  1
  Ir  Ir5  1  0.49609580  0.21446887  0.96413213  1
  Ir  Ir6  1  0.49692453  0.76035732  0.55321238  1
  Ir  Ir7  1  0.99692453  0.23964268  0.44678762  1
  S  S8  1  0.87266168  0.16450594  0.05916241  1
  S  S9  1  0.87925571  0.65341475  0.62620882  1
  S  S10  1  0.37925571  0.34658525  0.37379118  1
  S  S11  1  0.37266168  0.83549406  0.94083759  1
