# generated using pymatgen
data_TePIr
_symmetry_space_group_name_H-M   'P 1'
_cell_length_a   6.01764409
_cell_length_b   6.02799318
_cell_length_c   6.05623018
_cell_angle_alpha   90.00000000
_cell_angle_beta   90.00000000
_cell_angle_gamma   90.00000000
_symmetry_Int_Tables_number   1
_chemical_formula_structural   TePIr
_chemical_formula_sum   'Te4 P4 Ir4'
_cell_volume   219.68561661
_cell_formula_units_Z   4
loop_
 _symmetry_equiv_pos_site_id
 _symmetry_equiv_pos_as_xyz
  1  'x, y, z'
loop_
 _atom_site_type_symbol
 _atom_site_label
 _atom_site_symmetry_multiplicity
 _atom_site_fract_x
 _atom_site_fract_y
 _atom_site_fract_z
 _atom_site_occupancy
  Te  Te0  1  0.61716272  0.11711517  0.13994816  1
  Te  Te1  1  0.11716272  0.88288483  0.86005184  1
  Te  Te2  1  0.11716272  0.38288483  0.13994816  1
  Te  Te3  1  0.61716272  0.61711517  0.86005184  1
  P  P4  1  0.37673672  0.37686437  0.61761114  1
  P  P5  1  0.87673672  0.62313563  0.38238886  1
  P  P6  1  0.87673672  0.12313563  0.61761114  1
  P  P7  1  0.37673672  0.87686437  0.38238886  1
  Ir  Ir8  1  0.00830156  0.47930458  0.72320636  1
  Ir  Ir9  1  0.50830156  0.52069542  0.27679364  1
  Ir  Ir10  1  0.50830156  0.02069542  0.72320636  1
  Ir  Ir11  1  0.00830156  0.97930458  0.27679364  1
