# generated using pymatgen
data_TePIr
_symmetry_space_group_name_H-M   'P 1'
_cell_length_a   6.02380759
_cell_length_b   6.02380759
_cell_length_c   6.02380759
_cell_angle_alpha   90.00000000
_cell_angle_beta   90.00000000
_cell_angle_gamma   90.00000000
_symmetry_Int_Tables_number   1
_chemical_formula_structural   TePIr
_chemical_formula_sum   'Te4 P4 Ir4'
_cell_volume   218.58143564
_cell_formula_units_Z   4
loop_
 _symmetry_equiv_pos_site_id
 _symmetry_equiv_pos_as_xyz
  1  'x, y, z'
loop_
 _atom_site_type_symbol
 _atom_site_label
 _atom_site_symmetry_multiplicity
 _atom_site_fract_x
 _atom_site_fract_y
 _atom_site_fract_z
 _atom_site_occupancy
  Te  Te0  1  0.62183787  0.62183787  0.62183787  1
  Te  Te1  1  0.87816213  0.37816213  0.12183787  1
  Te  Te2  1  0.12183787  0.87816213  0.37816213  1
  Te  Te3  1  0.37816213  0.12183787  0.87816213  1
  P  P4  1  0.38054761  0.38054761  0.38054761  1
  P  P5  1  0.11945239  0.61945239  0.88054761  1
  P  P6  1  0.88054761  0.11945239  0.61945239  1
  P  P7  1  0.61945239  0.88054761  0.11945239  1
  Ir  Ir8  1  0.97893509  0.97893509  0.97893509  1
  Ir  Ir9  1  0.52106491  0.02106491  0.47893509  1
  Ir  Ir10  1  0.47893509  0.52106491  0.02106491  1
  Ir  Ir11  1  0.02106491  0.47893509  0.52106491  1
