# generated using pymatgen
data_PH6NO4
_symmetry_space_group_name_H-M   'P 1'
_cell_length_a   6.48805695
_cell_length_b   6.48805695
_cell_length_c   6.48805695
_cell_angle_alpha   109.00181908
_cell_angle_beta   109.70643004
_cell_angle_gamma   109.70643004
_symmetry_Int_Tables_number   1
_chemical_formula_structural   PH6NO4
_chemical_formula_sum   'P2 H12 N2 O8'
_cell_volume   210.23268070
_cell_formula_units_Z   2
loop_
 _symmetry_equiv_pos_site_id
 _symmetry_equiv_pos_as_xyz
  1  'x, y, z'
loop_
 _atom_site_type_symbol
 _atom_site_label
 _atom_site_symmetry_multiplicity
 _atom_site_fract_x
 _atom_site_fract_y
 _atom_site_fract_z
 _atom_site_occupancy
  P  P22  1  0.50000000  0.75000000  0.25000000  1.0
  P  P23  1  0.00000000  0.00000000  0.00000000  1.0
  H  H0  1  0.09240000  0.53170000  0.40710000  1.0
  H  H1  1  0.90760000  0.31470000  0.43930000  1.0
  H  H2  1  0.40760000  0.18930000  0.56470000  1.0
  H  H3  1  0.12460000  0.59290000  0.68530000  1.0
  H  H4  1  0.87540000  0.56070000  0.46830000  1.0
  H  H5  1  0.37540000  0.21830000  0.81070000  1.0
  H  H6  1  0.39430000  0.37500000  0.26930000  1.0
  H  H7  1  0.59240000  0.15710000  0.78170000  1.0
  H  H8  1  0.60570000  0.87500000  0.98070000  1.0
  H  H9  1  0.10570000  0.73070000  0.12500000  1.0
  H  H10  1  0.89430000  0.01930000  0.62500000  1.0
  H  H11  1  0.62460000  0.43530000  0.84290000  1.0
  N  N12  1  0.00000000  0.50000000  0.50000000  1.0
  N  N13  1  0.50000000  0.25000000  0.75000000  1.0
  O  O14  1  0.73240000  0.01270000  0.44970000  1.0
  O  O15  1  0.23240000  0.19970000  0.26270000  1.0
  O  O16  1  0.76760000  0.03030000  0.96730000  1.0
  O  O17  1  0.26760000  0.71730000  0.28030000  1.0
  O  O18  1  0.43700000  0.71970000  0.98730000  1.0
  O  O19  1  0.56300000  0.55030000  0.28270000  1.0
  O  O20  1  0.06300000  0.03270000  0.80030000  1.0
  O  O21  1  0.93700000  0.73730000  0.96970000  1.0
