# generated using pymatgen
data_YZn4Ir
_symmetry_space_group_name_H-M   'P 1'
_cell_length_a   5.02853885
_cell_length_b   5.02853885
_cell_length_c   5.02853885
_cell_angle_alpha   60.00000004
_cell_angle_beta   60.00000006
_cell_angle_gamma   60.00000006
_symmetry_Int_Tables_number   1
_chemical_formula_structural   YZn4Ir
_chemical_formula_sum   'Y1 Zn4 Ir1'
_cell_volume   89.91050396
_cell_formula_units_Z   1
loop_
 _symmetry_equiv_pos_site_id
 _symmetry_equiv_pos_as_xyz
  1  'x, y, z'
loop_
 _atom_site_type_symbol
 _atom_site_label
 _atom_site_symmetry_multiplicity
 _atom_site_fract_x
 _atom_site_fract_y
 _atom_site_fract_z
 _atom_site_occupancy
  Y  Y0  1  0.00000000  0.00000000  0.00000000  1
  Zn  Zn1  1  0.37605746  0.37605746  0.37605746  1
  Zn  Zn2  1  0.37605746  0.37605746  0.87182761  1
  Zn  Zn3  1  0.87182761  0.37605746  0.37605746  1
  Zn  Zn4  1  0.37605746  0.87182761  0.37605746  1
  Ir  Ir5  1  0.75000000  0.75000000  0.75000000  1
