# generated using pymatgen
data_PRhS
_symmetry_space_group_name_H-M   'P 1'
_cell_length_a   5.59030532
_cell_length_b   5.60602502
_cell_length_c   5.63238210
_cell_angle_alpha   90.00000000
_cell_angle_beta   90.00000000
_cell_angle_gamma   90.00000000
_symmetry_Int_Tables_number   1
_chemical_formula_structural   PRhS
_chemical_formula_sum   'P4 Rh4 S4'
_cell_volume   176.51542767
_cell_formula_units_Z   4
loop_
 _symmetry_equiv_pos_site_id
 _symmetry_equiv_pos_as_xyz
  1  'x, y, z'
loop_
 _atom_site_type_symbol
 _atom_site_label
 _atom_site_symmetry_multiplicity
 _atom_site_fract_x
 _atom_site_fract_y
 _atom_site_fract_z
 _atom_site_occupancy
  P  P0  1  0.38912762  0.38865576  0.63357871  1
  P  P1  1  0.88912762  0.61134424  0.36642129  1
  P  P2  1  0.88912762  0.11134424  0.63357871  1
  P  P3  1  0.38912762  0.88865576  0.36642129  1
  Rh  Rh4  1  0.00320962  0.49321219  0.74416206  1
  Rh  Rh5  1  0.50320962  0.50678781  0.25583794  1
  Rh  Rh6  1  0.50320962  0.00678781  0.74416206  1
  Rh  Rh7  1  0.00320962  0.99321219  0.25583794  1
  S  S8  1  0.60986376  0.11089232  0.14159295  1
  S  S9  1  0.10986376  0.88910768  0.85840705  1
  S  S10  1  0.10986376  0.38910768  0.14159295  1
  S  S11  1  0.60986376  0.61089232  0.85840705  1
