# generated using pymatgen
data_TeAsIr
_symmetry_space_group_name_H-M   'P 1'
_cell_length_a   6.16824028
_cell_length_b   6.16838100
_cell_length_c   6.17576482
_cell_angle_alpha   90.00000000
_cell_angle_beta   90.00000000
_cell_angle_gamma   90.00000000
_symmetry_Int_Tables_number   1
_chemical_formula_structural   TeAsIr
_chemical_formula_sum   'Te4 As4 Ir4'
_cell_volume   234.97584662
_cell_formula_units_Z   4
loop_
 _symmetry_equiv_pos_site_id
 _symmetry_equiv_pos_as_xyz
  1  'x, y, z'
loop_
 _atom_site_type_symbol
 _atom_site_label
 _atom_site_symmetry_multiplicity
 _atom_site_fract_x
 _atom_site_fract_y
 _atom_site_fract_z
 _atom_site_occupancy
  Te  Te0  1  0.11918183  0.62112365  0.86502126  1
  Te  Te1  1  0.88081817  0.12112365  0.13497874  1
  Te  Te2  1  0.38081817  0.12112365  0.86502126  1
  Te  Te3  1  0.61918183  0.62112365  0.13497874  1
  As  As4  1  0.37346427  0.37508663  0.38105489  1
  As  As5  1  0.62653573  0.87508663  0.61894511  1
  As  As6  1  0.12653573  0.87508663  0.38105489  1
  As  As7  1  0.87346427  0.37508663  0.61894511  1
  Ir  Ir8  1  0.48903402  0.00598972  0.26421395  1
  Ir  Ir9  1  0.51096598  0.50598972  0.73578605  1
  Ir  Ir10  1  0.01096598  0.50598972  0.26421395  1
  Ir  Ir11  1  0.98903402  0.00598972  0.73578605  1
