# generated using pymatgen
data_BiIrS
_symmetry_space_group_name_H-M   'P 1'
_cell_length_a   6.13425162
_cell_length_b   6.15115377
_cell_length_c   6.14903090
_cell_angle_alpha   90.00000000
_cell_angle_beta   90.00000000
_cell_angle_gamma   90.00000000
_symmetry_Int_Tables_number   1
_chemical_formula_structural   BiIrS
_chemical_formula_sum   'Bi4 Ir4 S4'
_cell_volume   232.01969183
_cell_formula_units_Z   4
loop_
 _symmetry_equiv_pos_site_id
 _symmetry_equiv_pos_as_xyz
  1  'x, y, z'
loop_
 _atom_site_type_symbol
 _atom_site_label
 _atom_site_symmetry_multiplicity
 _atom_site_fract_x
 _atom_site_fract_y
 _atom_site_fract_z
 _atom_site_occupancy
  Bi  Bi0  1  0.63357114  0.37453998  0.62136818  1
  Bi  Bi1  1  0.36642886  0.62546002  0.12136818  1
  Bi  Bi2  1  0.63357114  0.12546002  0.12136818  1
  Bi  Bi3  1  0.36642886  0.87453998  0.62136818  1
  Ir  Ir4  1  0.78100266  0.52230876  0.00283256  1
  Ir  Ir5  1  0.21899734  0.47769124  0.50283256  1
  Ir  Ir6  1  0.78100266  0.97769124  0.50283256  1
  Ir  Ir7  1  0.21899734  0.02230876  0.00283256  1
  S  S8  1  0.12060734  0.12008083  0.37359925  1
  S  S9  1  0.87939266  0.87991917  0.87359925  1
  S  S10  1  0.12060734  0.37991917  0.87359925  1
  S  S11  1  0.87939266  0.62008083  0.37359925  1
