# generated using pymatgen
data_ZrZn4Ru
_symmetry_space_group_name_H-M   'P 1'
_cell_length_a   4.93207541
_cell_length_b   4.93207541
_cell_length_c   4.93207541
_cell_angle_alpha   60.00000007
_cell_angle_beta   60.00000005
_cell_angle_gamma   60.00000006
_symmetry_Int_Tables_number   1
_chemical_formula_structural   ZrZn4Ru
_chemical_formula_sum   'Zr1 Zn4 Ru1'
_cell_volume   84.83481694
_cell_formula_units_Z   1
loop_
 _symmetry_equiv_pos_site_id
 _symmetry_equiv_pos_as_xyz
  1  'x, y, z'
loop_
 _atom_site_type_symbol
 _atom_site_label
 _atom_site_symmetry_multiplicity
 _atom_site_fract_x
 _atom_site_fract_y
 _atom_site_fract_z
 _atom_site_occupancy
  Zr  Zr0  1  0.75000000  0.75000000  0.75000000  1
  Zn  Zn1  1  0.37439770  0.37439770  0.37439770  1
  Zn  Zn2  1  0.37439770  0.37439770  0.87680691  1
  Zn  Zn3  1  0.87680691  0.37439770  0.37439770  1
  Zn  Zn4  1  0.37439770  0.87680691  0.37439770  1
  Ru  Ru5  1  0.00000000  0.00000000  0.00000000  1
