# generated using pymatgen
data_Hf3GeO8
_symmetry_space_group_name_H-M   'P 1'
_cell_length_a   5.00568007
_cell_length_b   5.00568007
_cell_length_c   5.00568007
_cell_angle_alpha   90.00000000
_cell_angle_beta   90.00000000
_cell_angle_gamma   90.00000000
_symmetry_Int_Tables_number   1
_chemical_formula_structural   Hf3GeO8
_chemical_formula_sum   'Hf3 Ge1 O8'
_cell_volume   125.42648938
_cell_formula_units_Z   1
loop_
 _symmetry_equiv_pos_site_id
 _symmetry_equiv_pos_as_xyz
  1  'x, y, z'
loop_
 _atom_site_type_symbol
 _atom_site_label
 _atom_site_symmetry_multiplicity
 _atom_site_fract_x
 _atom_site_fract_y
 _atom_site_fract_z
 _atom_site_occupancy
  Hf  Hf0  1  0.50000000  0.00000000  0.00000000  1
  Hf  Hf1  1  0.00000000  0.00000000  0.50000000  1
  Hf  Hf2  1  0.00000000  0.50000000  0.00000000  1
  Ge  Ge3  1  0.50000000  0.50000000  0.50000000  1
  O  O4  1  0.29333702  0.70666298  0.70666298  1
  O  O5  1  0.20091440  0.20091440  0.79908560  1
  O  O6  1  0.20091440  0.79908560  0.20091440  1
  O  O7  1  0.29333702  0.29333702  0.29333702  1
  O  O8  1  0.70666298  0.70666298  0.29333702  1
  O  O9  1  0.79908560  0.20091440  0.20091440  1
  O  O10  1  0.70666298  0.29333702  0.70666298  1
  O  O11  1  0.79908560  0.79908560  0.79908560  1
