# generated using pymatgen
data_H7NF4
_symmetry_space_group_name_H-M   'P 1'
_cell_length_a   6.03668848
_cell_length_b   6.03668848
_cell_length_c   6.03668848
_cell_angle_alpha   79.51002108
_cell_angle_beta   79.51002108
_cell_angle_gamma   79.51002108
_symmetry_Int_Tables_number   1
_chemical_formula_structural   H7NF4
_chemical_formula_sum   'H14 N2 F8'
_cell_volume   210.15671690
_cell_formula_units_Z   2
loop_
 _symmetry_equiv_pos_site_id
 _symmetry_equiv_pos_as_xyz
  1  'x, y, z'
loop_
 _atom_site_type_symbol
 _atom_site_label
 _atom_site_symmetry_multiplicity
 _atom_site_fract_x
 _atom_site_fract_y
 _atom_site_fract_z
 _atom_site_occupancy
  H  H8  1  0.96000000  0.54000000  0.74700000  1.0
  H  H9  1  0.54000000  0.74700000  0.96000000  1.0
  H  H10  1  0.74700000  0.96000000  0.54000000  1.0
  H  H11  1  0.04000000  0.46000000  0.24700000  1.0
  H  H12  1  0.46000000  0.24700000  0.04000000  1.0
  H  H13  1  0.24700000  0.04000000  0.46000000  1.0
  H  H14  1  0.13000000  0.92700000  0.01200000  1.0
  H  H15  1  0.92700000  0.01200000  0.13000000  1.0
  H  H16  1  0.01200000  0.13000000  0.92700000  1.0
  H  H17  1  0.42700000  0.63000000  0.51200000  1.0
  H  H18  1  0.63000000  0.51200000  0.42700000  1.0
  H  H19  1  0.51200000  0.42700000  0.63000000  1.0
  H  H20  1  0.93000000  0.93000000  0.93000000  1.0
  H  H21  1  0.43000000  0.43000000  0.43000000  1.0
  N  N22  1  0.00000000  0.00000000  0.00000000  1.0
  N  N23  1  0.50000000  0.50000000  0.50000000  1.0
  F  F0  1  0.76077000  0.76077000  0.76077000  1.0
  F  F1  1  0.26077000  0.26077000  0.26077000  1.0
  F  F2  1  0.05358000  0.43346000  0.73569000  1.0
  F  F3  1  0.43346000  0.73569000  0.05358000  1.0
  F  F4  1  0.73569000  0.05358000  0.43346000  1.0
  F  F5  1  0.93346000  0.55358000  0.23569000  1.0
  F  F6  1  0.55358000  0.23569000  0.93346000  1.0
  F  F7  1  0.23569000  0.93346000  0.55358000  1.0
