# generated using pymatgen
data_GeTeIr
_symmetry_space_group_name_H-M   'P 1'
_cell_length_a   6.34604907
_cell_length_b   6.36758609
_cell_length_c   6.49233986
_cell_angle_alpha   114.45106207
_cell_angle_beta   90.00000000
_cell_angle_gamma   90.00000000
_symmetry_Int_Tables_number   1
_chemical_formula_structural   GeTeIr
_chemical_formula_sum   'Ge4 Te4 Ir4'
_cell_volume   238.82031316
_cell_formula_units_Z   4
loop_
 _symmetry_equiv_pos_site_id
 _symmetry_equiv_pos_as_xyz
  1  'x, y, z'
loop_
 _atom_site_type_symbol
 _atom_site_label
 _atom_site_symmetry_multiplicity
 _atom_site_fract_x
 _atom_site_fract_y
 _atom_site_fract_z
 _atom_site_occupancy
  Ge  Ge0  1  0.14503884  0.35213532  0.92481478  1
  Ge  Ge1  1  0.13845784  0.85570765  0.36200298  1
  Ge  Ge2  1  0.63845784  0.14429235  0.63799702  1
  Ge  Ge3  1  0.64503884  0.64786468  0.07518522  1
  Te  Te4  1  0.86910439  0.66529684  0.56100913  1
  Te  Te5  1  0.87223023  0.15638099  0.12531294  1
  Te  Te6  1  0.37223023  0.84361901  0.87468706  1
  Te  Te7  1  0.36910439  0.33470316  0.43899087  1
  Ir  Ir8  1  0.98774271  0.26963750  0.55256790  1
  Ir  Ir9  1  0.48774271  0.73036250  0.44743210  1
  Ir  Ir10  1  0.49122499  0.27668750  0.03739138  1
  Ir  Ir11  1  0.99122499  0.72331250  0.96260862  1
