# generated using pymatgen
data_TePRh
_symmetry_space_group_name_H-M   'P 1'
_cell_length_a   6.00204784
_cell_length_b   6.00827298
_cell_length_c   6.03647683
_cell_angle_alpha   90.00000000
_cell_angle_beta   90.00000000
_cell_angle_gamma   90.00000000
_symmetry_Int_Tables_number   1
_chemical_formula_structural   TePRh
_chemical_formula_sum   'Te4 P4 Rh4'
_cell_volume   217.68707649
_cell_formula_units_Z   4
loop_
 _symmetry_equiv_pos_site_id
 _symmetry_equiv_pos_as_xyz
  1  'x, y, z'
loop_
 _atom_site_type_symbol
 _atom_site_label
 _atom_site_symmetry_multiplicity
 _atom_site_fract_x
 _atom_site_fract_y
 _atom_site_fract_z
 _atom_site_occupancy
  Te  Te0  1  0.61789356  0.11755647  0.14023283  1
  Te  Te1  1  0.11789356  0.88244353  0.85976717  1
  Te  Te2  1  0.11789356  0.38244353  0.14023283  1
  Te  Te3  1  0.61789356  0.61755647  0.85976717  1
  P  P4  1  0.37641969  0.37674619  0.61724281  1
  P  P5  1  0.87641969  0.62325381  0.38275719  1
  P  P6  1  0.87641969  0.12325381  0.61724281  1
  P  P7  1  0.37641969  0.87674619  0.38275719  1
  Rh  Rh8  1  0.00788675  0.47978584  0.72344606  1
  Rh  Rh9  1  0.50788675  0.52021416  0.27655394  1
  Rh  Rh10  1  0.50788675  0.02021416  0.72344606  1
  Rh  Rh11  1  0.00788675  0.97978584  0.27655394  1
