# generated using pymatgen
data_TcP
_symmetry_space_group_name_H-M   'P 1'
_cell_length_a   4.74803891
_cell_length_b   4.74803891
_cell_length_c   4.74803891
_cell_angle_alpha   90.00000000
_cell_angle_beta   90.00000000
_cell_angle_gamma   90.00000000
_symmetry_Int_Tables_number   1
_chemical_formula_structural   TcP
_chemical_formula_sum   'Tc4 P4'
_cell_volume   107.03918852
_cell_formula_units_Z   4
loop_
 _symmetry_equiv_pos_site_id
 _symmetry_equiv_pos_as_xyz
  1  'x, y, z'
loop_
 _atom_site_type_symbol
 _atom_site_label
 _atom_site_symmetry_multiplicity
 _atom_site_fract_x
 _atom_site_fract_y
 _atom_site_fract_z
 _atom_site_occupancy
  Tc  Tc0  1  0.36012471  0.86012471  0.63987529  1
  Tc  Tc1  1  0.13987529  0.13987529  0.13987529  1
  Tc  Tc2  1  0.63987529  0.36012471  0.86012471  1
  Tc  Tc3  1  0.86012471  0.63987529  0.36012471  1
  P  P4  1  0.07720752  0.57720752  0.92279248  1
  P  P5  1  0.42279248  0.42279248  0.42279248  1
  P  P6  1  0.92279248  0.07720752  0.57720752  1
  P  P7  1  0.57720752  0.92279248  0.07720752  1
