# generated using pymatgen
data_B4PbO7
_symmetry_space_group_name_H-M   'P 1'
_cell_length_a   10.86000000
_cell_length_b   4.46300000
_cell_length_c   4.25100000
_cell_angle_alpha   90.00000000
_cell_angle_beta   90.00000000
_cell_angle_gamma   90.00000000
_symmetry_Int_Tables_number   1
_chemical_formula_structural   B4PbO7
_chemical_formula_sum   'B8 Pb2 O14'
_cell_volume   206.03823318
_cell_formula_units_Z   2
loop_
 _symmetry_equiv_pos_site_id
 _symmetry_equiv_pos_as_xyz
  1  'x, y, z'
loop_
 _atom_site_type_symbol
 _atom_site_label
 _atom_site_symmetry_multiplicity
 _atom_site_fract_x
 _atom_site_fract_y
 _atom_site_fract_z
 _atom_site_occupancy
  B  B0  1  0.24790000  0.18000000  0.99700000  1.0
  B  B1  1  0.25210000  0.82000000  0.49700000  1.0
  B  B2  1  0.37760000  0.67500000  0.02500000  1.0
  B  B3  1  0.12240000  0.32500000  0.52500000  1.0
  B  B4  1  0.87760000  0.32500000  0.52500000  1.0
  B  B5  1  0.62240000  0.67500000  0.02500000  1.0
  B  B6  1  0.74790000  0.82000000  0.49700000  1.0
  B  B7  1  0.75210000  0.18000000  0.99700000  1.0
  Pb  Pb8  1  0.50000000  0.19835000  0.53180000  1.0
  Pb  Pb9  1  0.00000000  0.80165000  0.03180000  1.0
  O  O10  1  0.14480000  0.63800000  0.45000000  1.0
  O  O11  1  0.36390000  0.73000000  0.35700000  1.0
  O  O12  1  0.13610000  0.27000000  0.85700000  1.0
  O  O13  1  0.86390000  0.27000000  0.85700000  1.0
  O  O14  1  0.71950000  0.87200000  0.85000000  1.0
  O  O15  1  0.78050000  0.12800000  0.35000000  1.0
  O  O16  1  0.21950000  0.12800000  0.35000000  1.0
  O  O17  1  0.28050000  0.87200000  0.85000000  1.0
  O  O18  1  0.64480000  0.36200000  0.95000000  1.0
  O  O19  1  0.85520000  0.63800000  0.45000000  1.0
  O  O20  1  0.50000000  0.76500000  0.91600000  1.0
  O  O21  1  0.00000000  0.23500000  0.41600000  1.0
  O  O22  1  0.63610000  0.73000000  0.35700000  1.0
  O  O23  1  0.35520000  0.36200000  0.95000000  1.0
