# generated using pymatgen
data_BiSeI
_symmetry_space_group_name_H-M   'P 1'
_cell_length_a   4.18786242
_cell_length_b   4.18786242
_cell_length_c   13.48533502
_cell_angle_alpha   90.00000000
_cell_angle_beta   90.00000000
_cell_angle_gamma   120.00000002
_symmetry_Int_Tables_number   1
_chemical_formula_structural   BiSeI
_chemical_formula_sum   'Bi2 Se2 I2'
_cell_volume   204.82227379
_cell_formula_units_Z   2
loop_
 _symmetry_equiv_pos_site_id
 _symmetry_equiv_pos_as_xyz
  1  'x, y, z'
loop_
 _atom_site_type_symbol
 _atom_site_label
 _atom_site_symmetry_multiplicity
 _atom_site_fract_x
 _atom_site_fract_y
 _atom_site_fract_z
 _atom_site_occupancy
  Bi  Bi0  1  0.33333333  0.66666667  0.15453621  1
  Bi  Bi1  1  0.66666667  0.33333333  0.65453621  1
  Se  Se2  1  0.66666667  0.33333333  0.26669663  1
  Se  Se3  1  0.33333333  0.66666667  0.76669663  1
  I  I4  1  -0.00000000  -0.00000000  0.99686615  1
  I  I5  1  -0.00000000  -0.00000000  0.49686615  1
