# generated using pymatgen
data_Sr(AlSe2)2
_symmetry_space_group_name_H-M   'P 1'
_cell_length_a   6.14906602
_cell_length_b   6.24413444
_cell_length_c   6.24413444
_cell_angle_alpha   75.97134007
_cell_angle_beta   60.50487254
_cell_angle_gamma   60.50487254
_symmetry_Int_Tables_number   1
_chemical_formula_structural   Sr(AlSe2)2
_chemical_formula_sum   'Sr1 Al2 Se4'
_cell_volume   181.63058635
_cell_formula_units_Z   1
loop_
 _symmetry_equiv_pos_site_id
 _symmetry_equiv_pos_as_xyz
  1  'x, y, z'
loop_
 _atom_site_type_symbol
 _atom_site_label
 _atom_site_symmetry_multiplicity
 _atom_site_fract_x
 _atom_site_fract_y
 _atom_site_fract_z
 _atom_site_occupancy
  Sr  Sr0  1  0.50000000  0.00001209  0.99998791  1
  Al  Al1  1  0.50000000  0.50001381  0.49998619  1
  Al  Al2  1  -0.00000000  0.49998493  0.50001507  1
  Se  Se3  1  0.07987039  0.84034021  0.50000579  1
  Se  Se4  1  0.57987631  0.49999442  0.84033969  1
  Se  Se5  1  0.92012961  0.49999421  0.15965979  1
  Se  Se6  1  0.42012369  0.15966031  0.50000558  1
