# generated using pymatgen
data_TeAsRh
_symmetry_space_group_name_H-M   'P 1'
_cell_length_a   6.15044244
_cell_length_b   6.15148115
_cell_length_c   6.15795680
_cell_angle_alpha   90.00000000
_cell_angle_beta   90.00000000
_cell_angle_gamma   90.00000000
_symmetry_Int_Tables_number   1
_chemical_formula_structural   TeAsRh
_chemical_formula_sum   'Te4 As4 Rh4'
_cell_volume   232.98217422
_cell_formula_units_Z   4
loop_
 _symmetry_equiv_pos_site_id
 _symmetry_equiv_pos_as_xyz
  1  'x, y, z'
loop_
 _atom_site_type_symbol
 _atom_site_label
 _atom_site_symmetry_multiplicity
 _atom_site_fract_x
 _atom_site_fract_y
 _atom_site_fract_z
 _atom_site_occupancy
  Te  Te0  1  0.61992466  0.62348283  0.86514021  1
  Te  Te1  1  0.88007534  0.12348283  0.86514021  1
  Te  Te2  1  0.38007534  0.12348283  0.13485979  1
  Te  Te3  1  0.11992466  0.62348283  0.13485979  1
  As  As4  1  0.37314314  0.37619482  0.61831573  1
  As  As5  1  0.12685686  0.87619482  0.61831573  1
  As  As6  1  0.87314314  0.37619482  0.38168427  1
  As  As7  1  0.62685686  0.87619482  0.38168427  1
  Rh  Rh8  1  0.01096756  0.50732335  0.73550649  1
  Rh  Rh9  1  0.51096756  0.50732335  0.26449351  1
  Rh  Rh10  1  0.48903244  0.00732335  0.73550649  1
  Rh  Rh11  1  0.98903244  0.00732335  0.26449351  1
