# generated using pymatgen
data_Si3P2Rh
_symmetry_space_group_name_H-M   'P 1'
_cell_length_a   5.11508248
_cell_length_b   5.49493198
_cell_length_c   7.44925715
_cell_angle_alpha   95.40486890
_cell_angle_beta   93.27351793
_cell_angle_gamma   109.75444739
_symmetry_Int_Tables_number   1
_chemical_formula_structural   Si3P2Rh
_chemical_formula_sum   'Si6 P4 Rh2'
_cell_volume   195.29272560
_cell_formula_units_Z   2
loop_
 _symmetry_equiv_pos_site_id
 _symmetry_equiv_pos_as_xyz
  1  'x, y, z'
loop_
 _atom_site_type_symbol
 _atom_site_label
 _atom_site_symmetry_multiplicity
 _atom_site_fract_x
 _atom_site_fract_y
 _atom_site_fract_z
 _atom_site_occupancy
  Si  Si0  1  0.68232158  0.60738860  0.07628117  1
  Si  Si1  1  0.20109979  0.72937549  0.80787950  1
  Si  Si2  1  0.64316715  0.98349910  0.75157149  1
  Si  Si3  1  0.56470492  0.34975913  0.66551786  1
  Si  Si4  1  0.34635989  0.01128306  0.21684309  1
  Si  Si5  1  0.05956145  0.46145411  0.40856685  1
  P  P6  1  0.18137059  0.12040813  0.47805525  1
  P  P7  1  0.29211215  0.38249041  0.89211995  1
  P  P8  1  0.49876163  0.70271908  0.33625936  1
  P  P9  1  0.78661715  0.25482569  0.14880715  1
  Rh  Rh10  1  0.86576783  0.73925855  0.58069209  1
  Rh  Rh11  1  0.99060986  0.98324766  0.97507424  1
