# generated using pymatgen
data_InBiO3
_symmetry_space_group_name_H-M   'P 1'
_cell_length_a   5.63503810
_cell_length_b   5.96956972
_cell_length_c   8.28661089
_cell_angle_alpha   90.00000000
_cell_angle_beta   90.00000000
_cell_angle_gamma   90.00000000
_symmetry_Int_Tables_number   1
_chemical_formula_structural   InBiO3
_chemical_formula_sum   'In4 Bi4 O12'
_cell_volume   278.75125538
_cell_formula_units_Z   4
loop_
 _symmetry_equiv_pos_site_id
 _symmetry_equiv_pos_as_xyz
  1  'x, y, z'
loop_
 _atom_site_type_symbol
 _atom_site_label
 _atom_site_symmetry_multiplicity
 _atom_site_fract_x
 _atom_site_fract_y
 _atom_site_fract_z
 _atom_site_occupancy
  In  In0  1  0.99942182  0.50187922  0.51574542  1
  In  In1  1  0.00057818  0.49812078  0.01574542  1
  In  In2  1  0.49942182  0.99812078  0.01574542  1
  In  In3  1  0.50057818  0.00187922  0.51574542  1
  Bi  Bi4  1  0.99855059  0.05905356  0.78951804  1
  Bi  Bi5  1  0.50144941  0.55905356  0.78951804  1
  Bi  Bi6  1  0.49855059  0.44094644  0.28951804  1
  Bi  Bi7  1  0.00144941  0.94094644  0.28951804  1
  O  O8  1  0.19797116  0.20982595  0.43531881  1
  O  O9  1  0.88407033  0.55114899  0.25845066  1
  O  O10  1  0.11592967  0.44885101  0.75845066  1
  O  O11  1  0.84193780  0.83984949  0.53066608  1
  O  O12  1  0.34193780  0.66015051  0.03066608  1
  O  O13  1  0.65806220  0.33984949  0.53066608  1
  O  O14  1  0.15806220  0.16015051  0.03066608  1
  O  O15  1  0.38407033  0.94885101  0.75845066  1
  O  O16  1  0.80202884  0.79017405  0.93531881  1
  O  O17  1  0.30202884  0.70982595  0.43531881  1
  O  O18  1  0.61592967  0.05114899  0.25845066  1
  O  O19  1  0.69797116  0.29017405  0.93531881  1
