# generated using pymatgen
data_Tl3SbSe3
_symmetry_space_group_name_H-M   'P 1'
_cell_length_a   6.08936345
_cell_length_b   6.08936344
_cell_length_c   6.08936344
_cell_angle_alpha   104.17198045
_cell_angle_beta   104.17198050
_cell_angle_gamma   104.17198056
_symmetry_Int_Tables_number   1
_chemical_formula_structural   Tl3SbSe3
_chemical_formula_sum   'Tl3 Sb1 Se3'
_cell_volume   200.79546398
_cell_formula_units_Z   1
loop_
 _symmetry_equiv_pos_site_id
 _symmetry_equiv_pos_as_xyz
  1  'x, y, z'
loop_
 _atom_site_type_symbol
 _atom_site_label
 _atom_site_symmetry_multiplicity
 _atom_site_fract_x
 _atom_site_fract_y
 _atom_site_fract_z
 _atom_site_occupancy
  Tl  Tl0  1  0.55098333  0.55098333  0.17434413  1
  Tl  Tl1  1  0.55098333  0.17434413  0.55098333  1
  Tl  Tl2  1  0.17434413  0.55098333  0.55098333  1
  Sb  Sb3  1  0.00818766  0.00818766  0.00818766  1
  Se  Se4  1  0.56600119  0.97449718  0.97449718  1
  Se  Se5  1  0.97449718  0.97449718  0.56600119  1
  Se  Se6  1  0.97449718  0.56600119  0.97449718  1
