# generated using pymatgen
data_BiB2O4F
_symmetry_space_group_name_H-M   'P 1'
_cell_length_a   6.71470010
_cell_length_b   6.71470010
_cell_length_c   6.46880000
_cell_angle_alpha   90.00000000
_cell_angle_beta   90.00000000
_cell_angle_gamma   120.00000000
_symmetry_Int_Tables_number   1
_chemical_formula_structural   BiB2O4F
_chemical_formula_sum   'Bi3 B6 O12 F3'
_cell_volume   252.58502361
_cell_formula_units_Z   3
loop_
 _symmetry_equiv_pos_site_id
 _symmetry_equiv_pos_as_xyz
  1  'x, y, z'
loop_
 _atom_site_type_symbol
 _atom_site_label
 _atom_site_symmetry_multiplicity
 _atom_site_fract_x
 _atom_site_fract_y
 _atom_site_fract_z
 _atom_site_occupancy
  Bi  Bi0  1  0.23310000  0.29310000  0.78573300  1.0
  Bi  Bi1  1  0.06000000  0.76690000  0.11906633  1.0
  Bi  Bi2  1  0.70690000  0.94000000  0.45239967  1.0
  B  B3  1  0.76500000  0.31600000  0.78366700  1.0
  B  B4  1  0.67800000  0.95900000  0.99833300  1.0
  B  B5  1  0.55100000  0.23500000  0.11700033  1.0
  B  B6  1  0.28100000  0.32200000  0.33166633  1.0
  B  B7  1  0.68400000  0.44900000  0.45033367  1.0
  B  B8  1  0.04100000  0.71900000  0.66499967  1.0
  O  O9  1  0.33500000  0.18800000  0.19666700  1.0
  O  O10  1  0.97700000  0.53400000  0.80800000  1.0
  O  O11  1  0.70500000  0.27900000  0.56466700  1.0
  O  O12  1  0.72100000  0.42600000  0.23133367  1.0
  O  O13  1  0.46600000  0.44300000  0.47466667  1.0
  O  O14  1  0.81200000  0.14700000  0.86333367  1.0
  O  O15  1  0.10400000  0.90200000  0.79500000  1.0
  O  O16  1  0.55700000  0.02300000  0.14133333  1.0
  O  O17  1  0.79800000  0.89600000  0.12833333  1.0
  O  O18  1  0.85300000  0.66500000  0.53000033  1.0
  O  O19  1  0.57400000  0.29500000  0.89800033  1.0
  O  O20  1  0.09800000  0.20200000  0.46166667  1.0
  F  F21  1  0.23400000  0.46600000  0.21066700  1.0
  F  F22  1  0.53400000  0.76800000  0.87733367  1.0
  F  F23  1  0.23200000  0.76600000  0.54400033  1.0
