# generated using pymatgen
data_Li2SnPbS4
_symmetry_space_group_name_H-M   'P 1'
_cell_length_a   6.10306411
_cell_length_b   6.10306411
_cell_length_c   6.10306411
_cell_angle_alpha   100.04765972
_cell_angle_beta   114.37873148
_cell_angle_gamma   114.37873148
_symmetry_Int_Tables_number   1
_chemical_formula_structural   Li2SnPbS4
_chemical_formula_sum   'Li2 Sn1 Pb1 S4'
_cell_volume   171.52872851
_cell_formula_units_Z   1
loop_
 _symmetry_equiv_pos_site_id
 _symmetry_equiv_pos_as_xyz
  1  'x, y, z'
loop_
 _atom_site_type_symbol
 _atom_site_label
 _atom_site_symmetry_multiplicity
 _atom_site_fract_x
 _atom_site_fract_y
 _atom_site_fract_z
 _atom_site_occupancy
  Li  Li0  1  0.50000000  0.75000000  0.25000000  1
  Li  Li1  1  0.50000000  0.25000000  0.75000000  1
  Pb  Pb2  1  0.00000000  0.00000000  0.00000000  1
  S  S3  1  1.00000000  0.53758802  0.11522172  1
  S  S4  1  0.57763370  0.46241198  0.46241198  1
  S  S5  1  0.42236630  0.88477828  0.88477828  1
  S  S6  1  1.00000000  0.11522172  0.53758802  1
  Sn  Sn7  1  -0.00000000  0.50000000  0.50000000  1
