# generated using pymatgen
data_Si3P2Ir
_symmetry_space_group_name_H-M   'P 1'
_cell_length_a   5.11305332
_cell_length_b   5.49164138
_cell_length_c   7.51750404
_cell_angle_alpha   95.02402237
_cell_angle_beta   93.48886916
_cell_angle_gamma   109.39457193
_symmetry_Int_Tables_number   1
_chemical_formula_structural   Si3P2Ir
_chemical_formula_sum   'Si6 P4 Ir2'
_cell_volume   197.43068796
_cell_formula_units_Z   2
loop_
 _symmetry_equiv_pos_site_id
 _symmetry_equiv_pos_as_xyz
  1  'x, y, z'
loop_
 _atom_site_type_symbol
 _atom_site_label
 _atom_site_symmetry_multiplicity
 _atom_site_fract_x
 _atom_site_fract_y
 _atom_site_fract_z
 _atom_site_occupancy
  Si  Si0  1  0.68050324  0.60531454  0.07492117  1
  Si  Si1  1  0.20496609  0.73012506  0.80745282  1
  Si  Si2  1  0.64134525  0.98415514  0.75117556  1
  Si  Si3  1  0.56174227  0.34943366  0.66616037  1
  Si  Si4  1  0.34609299  0.01487486  0.21976327  1
  Si  Si5  1  0.05913190  0.46313718  0.40623554  1
  P  P6  1  0.18099906  0.12190347  0.47955277  1
  P  P7  1  0.29300284  0.38194374  0.89186582  1
  P  P8  1  0.49975112  0.69921345  0.33366120  1
  P  P9  1  0.78796835  0.25413229  0.15072957  1
  Ir  Ir10  1  0.86574835  0.73887509  0.57989682  1
  Ir  Ir11  1  0.99105794  0.98260253  0.97625510  1
