# generated using pymatgen
data_CaSiN2
_symmetry_space_group_name_H-M   'P 1'
_cell_length_a   5.07996375
_cell_length_b   5.07996375
_cell_length_c   5.07996375
_cell_angle_alpha   93.52635172
_cell_angle_beta   117.98537688
_cell_angle_gamma   117.98537688
_symmetry_Int_Tables_number   1
_chemical_formula_structural   CaSiN2
_chemical_formula_sum   'Ca2 Si2 N4'
_cell_volume   95.32467408
_cell_formula_units_Z   2
loop_
 _symmetry_equiv_pos_site_id
 _symmetry_equiv_pos_as_xyz
  1  'x, y, z'
loop_
 _atom_site_type_symbol
 _atom_site_label
 _atom_site_symmetry_multiplicity
 _atom_site_fract_x
 _atom_site_fract_y
 _atom_site_fract_z
 _atom_site_occupancy
  Ca  Ca0  1  0.00000000  0.00000000  0.00000000  1
  Ca  Ca1  1  0.50000000  0.75000000  0.25000000  1
  N  N2  1  0.10003507  0.22503507  0.62500000  1
  N  N3  1  0.89996493  0.52496493  0.12500000  1
  N  N4  1  0.39996493  0.87500000  0.77496493  1
  N  N5  1  0.60003507  0.37500000  0.47503507  1
  Si  Si6  1  -0.00000000  0.50000000  0.50000000  1
  Si  Si7  1  0.50000000  0.25000000  0.75000000  1
