# generated using pymatgen
data_CsAgH2
_symmetry_space_group_name_H-M   'P 1'
_cell_length_a   5.88447680
_cell_length_b   5.88447680
_cell_length_c   5.88447680
_cell_angle_alpha   91.37696269
_cell_angle_beta   119.20822010
_cell_angle_gamma   119.20822010
_symmetry_Int_Tables_number   1
_chemical_formula_structural   CsAgH2
_chemical_formula_sum   'Cs2 Ag2 H4'
_cell_volume   145.76039122
_cell_formula_units_Z   2
loop_
 _symmetry_equiv_pos_site_id
 _symmetry_equiv_pos_as_xyz
  1  'x, y, z'
loop_
 _atom_site_type_symbol
 _atom_site_label
 _atom_site_symmetry_multiplicity
 _atom_site_fract_x
 _atom_site_fract_y
 _atom_site_fract_z
 _atom_site_occupancy
  Ag  Ag0  1  -0.00000000  0.50000000  0.50000000  1
  Ag  Ag1  1  0.50000000  0.25000000  0.75000000  1
  Cs  Cs2  1  0.00000000  0.00000000  0.00000000  1
  Cs  Cs3  1  0.50000000  0.75000000  0.25000000  1
  H  H4  1  0.79377900  0.41877900  0.12500000  1
  H  H5  1  0.20622100  0.33122100  0.62500000  1
  H  H6  1  0.70622100  0.37500000  0.58122100  1
  H  H7  1  0.29377900  0.87500000  0.66877900  1
