# generated using pymatgen
data_LiHSeO3
_symmetry_space_group_name_H-M   'P 1'
_cell_length_a   5.05790000
_cell_length_b   5.22130000
_cell_length_c   11.18680000
_cell_angle_alpha   90.00000000
_cell_angle_beta   90.00000000
_cell_angle_gamma   90.00000000
_symmetry_Int_Tables_number   1
_chemical_formula_structural   LiHSeO3
_chemical_formula_sum   'Li4 H4 Se4 O12'
_cell_volume   295.43011229
_cell_formula_units_Z   4
loop_
 _symmetry_equiv_pos_site_id
 _symmetry_equiv_pos_as_xyz
  1  'x, y, z'
loop_
 _atom_site_type_symbol
 _atom_site_label
 _atom_site_symmetry_multiplicity
 _atom_site_fract_x
 _atom_site_fract_y
 _atom_site_fract_z
 _atom_site_occupancy
  Li  Li0  1  0.99230000  0.93300000  0.66678000  1.0
  Li  Li1  1  0.49230000  0.56700000  0.33322000  1.0
  Li  Li2  1  0.00770000  0.43300000  0.83322000  1.0
  Li  Li3  1  0.50770000  0.06700000  0.16678000  1.0
  H  H4  1  0.96000000  0.91200000  0.09800000  1.0
  H  H5  1  0.46000000  0.58800000  0.90200000  1.0
  H  H6  1  0.04000000  0.41200000  0.40200000  1.0
  H  H7  1  0.54000000  0.08800000  0.59800000  1.0
  Se  Se8  1  0.88182000  0.51684000  0.10291000  1.0
  Se  Se9  1  0.38182000  0.98316000  0.89709000  1.0
  Se  Se10  1  0.11818000  0.01684000  0.39709000  1.0
  Se  Se11  1  0.61818000  0.48316000  0.60291000  1.0
  O  O12  1  0.76453000  0.45826000  0.96669000  1.0
  O  O13  1  0.85507000  0.58553000  0.69287000  1.0
  O  O14  1  0.14493000  0.08553000  0.80713000  1.0
  O  O15  1  0.64493000  0.41447000  0.19287000  1.0
  O  O16  1  0.67861000  0.14624000  0.61597000  1.0
  O  O17  1  0.17861000  0.35376000  0.38403000  1.0
  O  O18  1  0.32139000  0.64624000  0.88403000  1.0
  O  O19  1  0.82139000  0.85376000  0.11597000  1.0
  O  O20  1  0.23547000  0.95826000  0.53331000  1.0
  O  O21  1  0.73547000  0.54174000  0.46669000  1.0
  O  O22  1  0.35507000  0.91447000  0.30713000  1.0
  O  O23  1  0.26453000  0.04174000  0.03331000  1.0
