# generated using pymatgen
data_LiBeAs
_symmetry_space_group_name_H-M   'P 1'
_cell_length_a   3.84182045
_cell_length_b   3.84182045
_cell_length_c   6.18261276
_cell_angle_alpha   90.00000000
_cell_angle_beta   90.00000000
_cell_angle_gamma   120.00000000
_symmetry_Int_Tables_number   1
_chemical_formula_structural   LiBeAs
_chemical_formula_sum   'Li2 Be2 As2'
_cell_volume   79.02723835
_cell_formula_units_Z   2
loop_
 _symmetry_equiv_pos_site_id
 _symmetry_equiv_pos_as_xyz
  1  'x, y, z'
loop_
 _atom_site_type_symbol
 _atom_site_label
 _atom_site_symmetry_multiplicity
 _atom_site_fract_x
 _atom_site_fract_y
 _atom_site_fract_z
 _atom_site_occupancy
  Li  Li0  1  0.00000000  0.00000000  0.17261900  1
  Li  Li1  1  0.00000000  0.00000000  0.67261900  1
  Be  Be2  1  0.33333333  0.66666667  0.99332717  1
  Be  Be3  1  0.66666667  0.33333333  0.49332717  1
  As  As4  1  0.33333333  0.66666667  0.38405383  1
  As  As5  1  0.66666667  0.33333333  0.88405383  1
