# generated using pymatgen
data_Ca(AlSe2)2
_symmetry_space_group_name_H-M   'P 1'
_cell_length_a   6.09611933
_cell_length_b   6.09611933
_cell_length_c   6.09611933
_cell_angle_alpha   104.69818147
_cell_angle_beta   104.69818147
_cell_angle_gamma   119.50802844
_symmetry_Int_Tables_number   1
_chemical_formula_structural   Ca(AlSe2)2
_chemical_formula_sum   'Ca1 Al2 Se4'
_cell_volume   170.32229978
_cell_formula_units_Z   1
loop_
 _symmetry_equiv_pos_site_id
 _symmetry_equiv_pos_as_xyz
  1  'x, y, z'
loop_
 _atom_site_type_symbol
 _atom_site_label
 _atom_site_symmetry_multiplicity
 _atom_site_fract_x
 _atom_site_fract_y
 _atom_site_fract_z
 _atom_site_occupancy
  Al  Al0  1  -0.00000000  0.50000000  0.50000000  1
  Al  Al1  1  0.50000000  -0.00000000  0.50000000  1
  Ca  Ca2  1  0.00000000  0.00000000  0.00000000  1
  Se  Se3  1  0.57441363  0.42558637  0.50000000  1
  Se  Se4  1  0.07441363  0.57441363  0.14882726  1
  Se  Se5  1  0.42558637  0.92558637  0.85117274  1
  Se  Se6  1  0.92558637  0.07441363  0.50000000  1
