# generated using pymatgen
data_Na2ZnSiS4
_symmetry_space_group_name_H-M   'P 1'
_cell_length_a   6.23452075
_cell_length_b   6.23452075
_cell_length_c   6.23452075
_cell_angle_alpha   91.12513092
_cell_angle_beta   119.35254536
_cell_angle_gamma   119.35254536
_symmetry_Int_Tables_number   1
_chemical_formula_structural   Na2ZnSiS4
_chemical_formula_sum   'Na2 Zn1 Si1 S4'
_cell_volume   172.99480393
_cell_formula_units_Z   1
loop_
 _symmetry_equiv_pos_site_id
 _symmetry_equiv_pos_as_xyz
  1  'x, y, z'
loop_
 _atom_site_type_symbol
 _atom_site_label
 _atom_site_symmetry_multiplicity
 _atom_site_fract_x
 _atom_site_fract_y
 _atom_site_fract_z
 _atom_site_occupancy
  Na  Na0  1  0.00000000  0.00000000  0.00000000  1
  Na  Na1  1  0.50000000  0.25000000  0.75000000  1
  S  S2  1  0.90828049  0.10473440  0.55444894  1
  S  S3  1  0.44971454  0.80354609  0.89526560  1
  S  S4  1  0.55028546  0.44555106  0.35383155  1
  S  S5  1  0.09171951  0.64616845  0.19645391  1
  Si  Si6  1  0.50000000  0.75000000  0.25000000  1
  Zn  Zn7  1  -0.00000000  0.50000000  0.50000000  1
