# generated using pymatgen
data_SrCaHf2O6
_symmetry_space_group_name_H-M   'P 1'
_cell_length_a   5.62936096
_cell_length_b   5.73751584
_cell_length_c   8.02572534
_cell_angle_alpha   90.00000000
_cell_angle_beta   90.00000000
_cell_angle_gamma   90.00000000
_symmetry_Int_Tables_number   1
_chemical_formula_structural   SrCaHf2O6
_chemical_formula_sum   'Sr2 Ca2 Hf4 O12'
_cell_volume   259.21927254
_cell_formula_units_Z   2
loop_
 _symmetry_equiv_pos_site_id
 _symmetry_equiv_pos_as_xyz
  1  'x, y, z'
loop_
 _atom_site_type_symbol
 _atom_site_label
 _atom_site_symmetry_multiplicity
 _atom_site_fract_x
 _atom_site_fract_y
 _atom_site_fract_z
 _atom_site_occupancy
  Sr  Sr0  1  0.23893103  0.46365262  0.50000000  1
  Sr  Sr1  1  0.76106897  0.96365262  0.50000000  1
  Ca  Ca2  1  0.25784053  0.54556193  0.00000000  1
  Ca  Ca3  1  0.74215947  0.04556193  0.00000000  1
  Hf  Hf4  1  0.75073627  0.50094347  0.75479534  1
  Hf  Hf5  1  0.24926373  0.00094347  0.24520466  1
  Hf  Hf6  1  0.75073627  0.50094347  0.24520466  1
  Hf  Hf7  1  0.24926373  0.00094347  0.75479534  1
  O  O8  1  0.15108110  0.96407569  0.00000000  1
  O  O9  1  0.84891890  0.46407569  0.00000000  1
  O  O10  1  0.32454535  0.01727313  0.50000000  1
  O  O11  1  0.67545465  0.51727313  0.50000000  1
  O  O12  1  0.54463824  0.79414129  0.80313258  1
  O  O13  1  0.45536176  0.29414129  0.19686742  1
  O  O14  1  0.95817692  0.20963405  0.28876158  1
  O  O15  1  0.04182308  0.70963405  0.71123842  1
  O  O16  1  0.95817692  0.20963405  0.71123842  1
  O  O17  1  0.04182308  0.70963405  0.28876158  1
  O  O18  1  0.54463824  0.79414129  0.19686742  1
  O  O19  1  0.45536176  0.29414129  0.80313258  1
