# generated using pymatgen
data_Pb7(ClF6)2
_symmetry_space_group_name_H-M   'P 1'
_cell_length_a   10.17326161
_cell_length_b   10.17326161
_cell_length_c   3.92913756
_cell_angle_alpha   90.00000000
_cell_angle_beta   90.00000000
_cell_angle_gamma   120.00000000
_symmetry_Int_Tables_number   1
_chemical_formula_structural   Pb7(ClF6)2
_chemical_formula_sum   'Pb7 Cl2 F12'
_cell_volume   352.16670261
_cell_formula_units_Z   1
loop_
 _symmetry_equiv_pos_site_id
 _symmetry_equiv_pos_as_xyz
  1  'x, y, z'
loop_
 _atom_site_type_symbol
 _atom_site_label
 _atom_site_symmetry_multiplicity
 _atom_site_fract_x
 _atom_site_fract_y
 _atom_site_fract_z
 _atom_site_occupancy
  Pb  Pb0  1  0.33333333  0.66666667  0.50000000  1
  Pb  Pb1  1  0.22258298  0.97048184  0.50000000  1
  Pb  Pb2  1  0.74789886  0.77741702  0.50000000  1
  Pb  Pb3  1  0.02951816  0.25210114  0.50000000  1
  Pb  Pb4  1  0.44848950  0.38002445  0.00000000  1
  Pb  Pb5  1  0.93153495  0.55151050  0.00000000  1
  Pb  Pb6  1  0.61997555  0.06846505  0.00000000  1
  Cl  Cl7  1  0.00000000  0.00000000  0.00000000  1
  Cl  Cl8  1  0.66666667  0.33333333  0.50000000  1
  F  F9  1  0.72208803  0.62824478  0.00000000  1
  F  F10  1  0.90615675  0.27791197  0.00000000  1
  F  F11  1  0.37175522  0.09384325  0.00000000  1
  F  F12  1  0.49756050  0.55247051  0.50000000  1
  F  F13  1  0.05491001  0.50243950  0.50000000  1
  F  F14  1  0.44752949  0.94508999  0.50000000  1
  F  F15  1  0.76445944  0.04736408  0.50000000  1
  F  F16  1  0.28290464  0.23554056  0.50000000  1
  F  F17  1  0.95263592  0.71709536  0.50000000  1
  F  F18  1  0.54309883  0.79655831  0.00000000  1
  F  F19  1  0.25345948  0.45690117  0.00000000  1
  F  F20  1  0.20344169  0.74654052  0.00000000  1
