# generated using pymatgen
data_ZrTiO4
_symmetry_space_group_name_H-M   'P 1'
_cell_length_a   4.91228595
_cell_length_b   5.35468859
_cell_length_c   9.97205712
_cell_angle_alpha   95.15858969
_cell_angle_beta   92.28133331
_cell_angle_gamma   91.20901194
_symmetry_Int_Tables_number   1
_chemical_formula_structural   ZrTiO4
_chemical_formula_sum   'Zr4 Ti4 O16'
_cell_volume   260.95286102
_cell_formula_units_Z   4
loop_
 _symmetry_equiv_pos_site_id
 _symmetry_equiv_pos_as_xyz
  1  'x, y, z'
loop_
 _atom_site_type_symbol
 _atom_site_label
 _atom_site_symmetry_multiplicity
 _atom_site_fract_x
 _atom_site_fract_y
 _atom_site_fract_z
 _atom_site_occupancy
  Zr  Zr0  1  0.04192960  0.72829912  0.89333763  1
  Zr  Zr1  1  0.96353874  0.28807140  0.10989637  1
  Zr  Zr2  1  0.02028797  0.70954418  0.39196007  1
  Zr  Zr3  1  0.45299711  0.21213260  0.39637301  1
  Ti  Ti4  1  0.99390409  0.30029926  0.62776583  1
  Ti  Ti5  1  0.49169737  0.18912023  0.87029091  1
  Ti  Ti6  1  0.51401574  0.82704310  0.13299985  1
  Ti  Ti7  1  0.54249104  0.78609228  0.62448268  1
  O  O8  1  0.25058693  0.58512847  0.04486139  1
  O  O9  1  0.29122284  0.53646349  0.53585383  1
  O  O10  1  0.19382902  0.40007829  0.28284032  1
  O  O11  1  0.23080756  0.37596610  0.78679817  1
  O  O12  1  0.33130869  0.87302336  0.77524307  1
  O  O13  1  0.25635887  0.90440063  0.27027309  1
  O  O14  1  0.19472429  0.03862410  0.53074656  1
  O  O15  1  0.25515574  0.06893451  0.00709440  1
  O  O16  1  0.67592735  0.88813164  0.46376755  1
  O  O17  1  0.74390398  0.94747096  0.98505697  1
  O  O18  1  0.72500827  0.12406412  0.71028201  1
  O  O19  1  0.68227268  0.13392304  0.22492450  1
  O  O20  1  0.76355705  0.62994583  0.20981509  1
  O  O21  1  0.80334846  0.39787557  0.47212218  1
  O  O22  1  0.75856332  0.42546541  0.94666895  1
  O  O23  1  0.82256330  0.62989934  0.70654655  1
